
  EPA STORM WATER MANAGEMENT MODEL - VERSION 5.2 (Build 5.2.4)
  ------------------------------------------------------------

  
  ERROR 235: invalid infiltration parameters at line 980 of [INFIL] section:
  SC_SEWER_BB1006  0.100000   3.000000   0.000000   0.000000   0.000000  

  
  ERROR 235: invalid infiltration parameters at line 981 of [INFIL] section:
  SC_SEWER_BB1008  0.100000   3.000000   0.000000   0.000000   0.000000  

  
  ERROR 235: invalid infiltration parameters at line 982 of [INFIL] section:
  SC_SEWER_BB1010  0.100000   3.000000   0.000000   0.000000   0.000000  

  
  ERROR 235: invalid infiltration parameters at line 983 of [INFIL] section:
  SC_SEWER_BB1012  0.100000   3.000000   0.000000   0.000000   0.000000  

  
  ERROR 235: invalid infiltration parameters at line 984 of [INFIL] section:
  SC_SEWER_BB1014  0.100000   3.000000   0.000000   0.000000   0.000000  

  
  ERROR 235: invalid infiltration parameters at line 985 of [INFIL] section:
  SC_SEWER_BB1016  0.100000   3.000000   0.000000   0.000000   0.000000  

  
  ERROR 235: invalid infiltration parameters at line 1022 of [INFIL] section:
  SC_SEWER_BB1090  0.100000   3.000000   0.000000   0.000000   0.000000  

  
  ERROR 235: invalid infiltration parameters at line 1026 of [INFIL] section:
  SC_SEWER_BRC1002 0.100000   3.000000   0.000000   0.000000   0.000000  

  
  ERROR 235: invalid infiltration parameters at line 1027 of [INFIL] section:
  SC_SEWER_BRC1012 0.100000   3.000000   0.000000   17280000.000000 0.000000  

  
  ERROR 235: invalid infiltration parameters at line 1028 of [INFIL] section:
  SC_SEWER_BUC1000 0.100000   3.000000   0.000000   0.000000   0.000000  

  
  ERROR 235: invalid infiltration parameters at line 1029 of [INFIL] section:
  SC_SEWER_BUC1002 0.100000   3.000000   0.000000   0.000000   0.000000  

  
  ERROR 235: invalid infiltration parameters at line 1030 of [INFIL] section:
  SC_SEWER_BUC1004 0.100000   3.000000   0.000000   0.000000   0.000000  

  
  ERROR 235: invalid infiltration parameters at line 1031 of [INFIL] section:
  SC_SEWER_BUC1006 0.100000   3.000000   0.000000   0.000000   0.000000  

  
  ERROR 235: invalid infiltration parameters at line 1032 of [INFIL] section:
  SC_SEWER_BUC1008 0.100000   3.000000   0.000000   0.000000   0.000000  

  
  ERROR 235: invalid infiltration parameters at line 1033 of [INFIL] section:
  SC_SEWER_BUC1010 0.100000   3.000000   0.000000   0.000000   0.000000  

  
  ERROR 235: invalid infiltration parameters at line 1034 of [INFIL] section:
  SC_SEWER_BUC1012 0.100000   3.000000   0.000000   0.000000   0.000000  

  
  ERROR 235: invalid infiltration parameters at line 1035 of [INFIL] section:
  SC_SEWER_BUC1014 0.100000   3.000000   0.000000   0.000000   0.000000  

  
  ERROR 235: invalid infiltration parameters at line 1036 of [INFIL] section:
  SC_SEWER_BUC1016 0.100000   3.000000   0.000000   0.000000   0.000000  

  
  ERROR 235: invalid infiltration parameters at line 1037 of [INFIL] section:
  SC_SEWER_BUC1018 0.100000   3.000000   0.000000   0.000000   0.000000  

  
  ERROR 235: invalid infiltration parameters at line 1038 of [INFIL] section:
  SC_SEWER_BUC1020 0.100000   3.000000   0.000000   0.000000   0.000000  

  
  ERROR 235: invalid infiltration parameters at line 1039 of [INFIL] section:
  SC_SEWER_BUC1022 0.100000   3.000000   0.000000   0.000000   0.000000  

  
  ERROR 235: invalid infiltration parameters at line 1040 of [INFIL] section:
  SC_SEWER_BUC1024 0.100000   3.000000   0.000000   0.000000   0.000000  

  
  ERROR 235: invalid infiltration parameters at line 1041 of [INFIL] section:
  SC_SEWER_BUC1026 0.100000   3.000000   0.000000   0.000000   0.000000  

  
  ERROR 235: invalid infiltration parameters at line 1042 of [INFIL] section:
  SC_SEWER_BUC1028 0.100000   3.000000   0.000000   0.000000   0.000000  

  
  ERROR 235: invalid infiltration parameters at line 1043 of [INFIL] section:
  SC_SEWER_BUC1030 0.100000   3.000000   0.000000   0.000000   0.000000  

  
  ERROR 235: invalid infiltration parameters at line 1044 of [INFIL] section:
  SC_SEWER_BUC1032 0.100000   3.000000   0.000000   0.000000   0.000000  

  
  ERROR 235: invalid infiltration parameters at line 1045 of [INFIL] section:
  SC_SEWER_BUC1034 0.100000   3.000000   0.000000   0.000000   0.000000  

  
  ERROR 235: invalid infiltration parameters at line 1046 of [INFIL] section:
  SC_SEWER_BUC1044 0.100000   3.000000   0.000000   0.000000   0.000000  

  
  ERROR 235: invalid infiltration parameters at line 1047 of [INFIL] section:
  SC_SEWER_BUC1048 0.100000   3.000000   0.000000   0.000000   0.000000  

  
  ERROR 235: invalid infiltration parameters at line 1048 of [INFIL] section:
  SC_SEWER_BUC1052 0.100000   3.000000   0.000000   0.000000   0.000000  

  
  ERROR 235: invalid infiltration parameters at line 1049 of [INFIL] section:
  SC_SEWER_BUC1054 0.100000   3.000000   0.000000   0.000000   0.000000  

  
  ERROR 235: invalid infiltration parameters at line 1050 of [INFIL] section:
  SC_SEWER_BUC1056 0.100000   3.000000   0.000000   0.000000   0.000000  

  
  ERROR 235: invalid infiltration parameters at line 1051 of [INFIL] section:
  SC_SEWER_BUC1058 0.100000   3.000000   0.000000   0.000000   0.000000  

  
  ERROR 235: invalid infiltration parameters at line 1080 of [INFIL] section:
  SC_SEWER_BUC1138 0.100000   3.000000   0.000000   0.000000   0.000000  

  
  ERROR 235: invalid infiltration parameters at line 1082 of [INFIL] section:
  SC_SEWER_BUC1142 0.100000   3.000000   0.000000   0.000000   0.000000  

  
  ERROR 235: invalid infiltration parameters at line 1083 of [INFIL] section:
  SC_SEWER_BUC1144 0.100000   3.000000   0.000000   0.000000   0.000000  

  
  ERROR 235: invalid infiltration parameters at line 1084 of [INFIL] section:
  SC_SEWER_BUC1146 0.100000   3.000000   0.000000   0.000000   0.000000  

  
  ERROR 235: invalid infiltration parameters at line 1085 of [INFIL] section:
  SC_SEWER_BUC1148 0.100000   3.000000   0.000000   0.000000   0.000000  

  
  ERROR 235: invalid infiltration parameters at line 1090 of [INFIL] section:
  SC_SEWER_BUC1158 0.100000   3.000000   0.000000   0.000000   0.000000  

  
  ERROR 235: invalid infiltration parameters at line 1091 of [INFIL] section:
  SC_SEWER_BUC1160 0.100000   3.000000   0.000000   0.000000   0.000000  

  
  ERROR 235: invalid infiltration parameters at line 1092 of [INFIL] section:
  SC_SEWER_BUC1162 0.100000   3.000000   0.000000   17280000.000000 0.000000  

  
  ERROR 235: invalid infiltration parameters at line 1096 of [INFIL] section:
  SC_SEWER_BUC1172 0.100000   3.000000   0.000000   17280000.000000 0.000000  

  
  ERROR 235: invalid infiltration parameters at line 1097 of [INFIL] section:
  SC_SEWER_BUC1174 0.100000   3.000000   0.000000   17280000.000000 0.000000  

  
  ERROR 235: invalid infiltration parameters at line 1098 of [INFIL] section:
  SC_SEWER_BUC1176 0.100000   3.000000   0.000000   17280000.000000 0.000000  

  
  ERROR 235: invalid infiltration parameters at line 1099 of [INFIL] section:
  SC_SEWER_BUC1178 0.100000   3.000000   0.000000   17280000.000000 0.000000  

  
  ERROR 235: invalid infiltration parameters at line 1100 of [INFIL] section:
  SC_SEWER_BUC1180 0.100000   3.000000   0.000000   17280000.000000 0.000000  

  
  ERROR 235: invalid infiltration parameters at line 1101 of [INFIL] section:
  SC_SEWER_BUC1182 0.100000   3.000000   0.000000   17280000.000000 0.000000  

  
  ERROR 235: invalid infiltration parameters at line 1102 of [INFIL] section:
  SC_SEWER_BUC1184 0.100000   3.000000   0.000000   17280000.000000 0.000000  

  
  ERROR 235: invalid infiltration parameters at line 1103 of [INFIL] section:
  SC_SEWER_BUC1186 0.100000   3.000000   0.000000   17280000.000000 0.000000  

  
  ERROR 235: invalid infiltration parameters at line 1104 of [INFIL] section:
  SC_SEWER_BUC1188 0.100000   3.000000   0.000000   17280000.000000 0.000000  

  
  ERROR 235: invalid infiltration parameters at line 1105 of [INFIL] section:
  SC_SEWER_BUC1190 0.100000   3.000000   0.000000   17280000.000000 0.000000  

  
  ERROR 235: invalid infiltration parameters at line 1106 of [INFIL] section:
  SC_SEWER_BUC1192 0.100000   3.000000   0.000000   17280000.000000 0.000000  

  
  ERROR 235: invalid infiltration parameters at line 1107 of [INFIL] section:
  SC_SEWER_BUC1194 0.100000   3.000000   0.000000   17280000.000000 0.000000  

  
  ERROR 235: invalid infiltration parameters at line 1108 of [INFIL] section:
  SC_SEWER_BUC1226 0.100000   3.000000   0.000000   17280000.000000 0.000000  

  
  ERROR 235: invalid infiltration parameters at line 1109 of [INFIL] section:
  SC_SEWER_BUC1228 0.100000   3.000000   0.000000   17280000.000000 0.000000  

  
  ERROR 235: invalid infiltration parameters at line 1110 of [INFIL] section:
  SC_SEWER_BUC1230 0.100000   3.000000   0.000000   17280000.000000 0.000000  

  
  ERROR 235: invalid infiltration parameters at line 1111 of [INFIL] section:
  SC_SEWER_BUC1232 0.100000   3.000000   0.000000   17280000.000000 0.000000  

  
  ERROR 235: invalid infiltration parameters at line 1112 of [INFIL] section:
  SC_SEWER_BUC1234 0.100000   3.000000   0.000000   17280000.000000 0.000000  

  
  ERROR 235: invalid infiltration parameters at line 1113 of [INFIL] section:
  SC_SEWER_BUC1236 0.100000   3.000000   0.000000   17280000.000000 0.000000  

  
  ERROR 235: invalid infiltration parameters at line 1114 of [INFIL] section:
  SC_SEWER_BUC1238 0.100000   3.000000   0.000000   17280000.000000 0.000000  

  
  ERROR 235: invalid infiltration parameters at line 1115 of [INFIL] section:
  SC_SEWER_BUC1240 0.100000   3.000000   0.000000   17280000.000000 0.000000  

  
  ERROR 235: invalid infiltration parameters at line 1116 of [INFIL] section:
  SC_SEWER_BUC1242 0.100000   3.000000   0.000000   17280000.000000 0.000000  

  
  ERROR 235: invalid infiltration parameters at line 1117 of [INFIL] section:
  SC_SEWER_BUC1244 0.100000   3.000000   0.000000   17280000.000000 0.000000  

  
  ERROR 235: invalid infiltration parameters at line 1118 of [INFIL] section:
  SC_SEWER_BUC1246 0.100000   3.000000   0.000000   17280000.000000 0.000000  

  
  ERROR 235: invalid infiltration parameters at line 1119 of [INFIL] section:
  SC_SEWER_BUC1248 0.100000   3.000000   0.000000   17280000.000000 0.000000  

  
  ERROR 235: invalid infiltration parameters at line 1120 of [INFIL] section:
  SC_SEWER_BUC1250 0.100000   3.000000   0.000000   17280000.000000 0.000000  

  
  ERROR 235: invalid infiltration parameters at line 1121 of [INFIL] section:
  SC_SEWER_BUC1252 0.100000   3.000000   0.000000   17280000.000000 0.000000  

  
  ERROR 235: invalid infiltration parameters at line 1122 of [INFIL] section:
  SC_SEWER_BUC1300 0.100000   3.000000   0.000000   17280000.000000 0.000000  

  
  ERROR 235: invalid infiltration parameters at line 1123 of [INFIL] section:
  SC_SEWER_BUC1302 0.100000   3.000000   0.000000   17280000.000000 0.000000  

  
  ERROR 235: invalid infiltration parameters at line 1124 of [INFIL] section:
  SC_SEWER_BUC1304 0.100000   3.000000   0.000000   17280000.000000 0.000000  

  
  ERROR 235: invalid infiltration parameters at line 1125 of [INFIL] section:
  SC_SEWER_BUC1308 0.100000   3.000000   0.000000   17280000.000000 0.000000  

  
  ERROR 235: invalid infiltration parameters at line 1126 of [INFIL] section:
  SC_SEWER_BUC1310 0.100000   3.000000   0.000000   17280000.000000 0.000000  

  
  ERROR 235: invalid infiltration parameters at line 1127 of [INFIL] section:
  SC_SEWER_CL1000  0.100000   3.000000   0.000000   17280000.000000 0.000000  

  
  ERROR 235: invalid infiltration parameters at line 1128 of [INFIL] section:
  SC_SEWER_CL1002  0.100000   3.000000   0.000000   17280000.000000 0.000000  

  
  ERROR 235: invalid infiltration parameters at line 1129 of [INFIL] section:
  SC_SEWER_CL1004  0.100000   3.000000   0.000000   17280000.000000 0.000000  

  
  ERROR 235: invalid infiltration parameters at line 1130 of [INFIL] section:
  SC_SEWER_CL1006  0.100000   3.000000   0.000000   17280000.000000 0.000000  

  
  ERROR 235: invalid infiltration parameters at line 1131 of [INFIL] section:
  SC_SEWER_CL1008  0.100000   3.000000   0.000000   17280000.000000 0.000000  

  
  ERROR 235: invalid infiltration parameters at line 1132 of [INFIL] section:
  SC_SEWER_CL1010  0.100000   3.000000   0.000000   0.000000   0.000000  

  
  ERROR 235: invalid infiltration parameters at line 1133 of [INFIL] section:
  SC_SEWER_CL1012  0.100000   3.000000   0.000000   0.000000   0.000000  

  
  ERROR 235: invalid infiltration parameters at line 1134 of [INFIL] section:
  SC_SEWER_CL1014  0.100000   3.000000   0.000000   0.000000   0.000000  

  
  ERROR 235: invalid infiltration parameters at line 1135 of [INFIL] section:
  SC_SEWER_CL1016  0.100000   3.000000   0.000000   0.000000   0.000000  

  
  ERROR 235: invalid infiltration parameters at line 1163 of [INFIL] section:
  SC_SEWER_CL1078  0.100000   3.000000   0.000000   0.000000   0.000000  

  
  ERROR 235: invalid infiltration parameters at line 1165 of [INFIL] section:
  SC_SEWER_CL1090  0.100000   3.000000   0.000000   17280000.000000 0.000000  

  
  ERROR 235: invalid infiltration parameters at line 1166 of [INFIL] section:
  SC_SEWER_CL1092  0.100000   3.000000   0.000000   17280000.000000 0.000000  

  
  ERROR 235: invalid infiltration parameters at line 1167 of [INFIL] section:
  SC_SEWER_CL1094  0.100000   3.000000   0.000000   17280000.000000 0.000000  

  
  ERROR 235: invalid infiltration parameters at line 1168 of [INFIL] section:
  SC_SEWER_LB1000  0.100000   3.000000   0.000000   17280000.000000 0.000000  

  
  ERROR 235: invalid infiltration parameters at line 1169 of [INFIL] section:
  SC_SEWER_LB1004  0.100000   3.000000   0.000000   17280000.000000 0.000000  

  
  ERROR 235: invalid infiltration parameters at line 1170 of [INFIL] section:
  SC_SEWER_LBC1018 0.100000   3.000000   0.000000   0.000000   0.000000  

  
  ERROR 235: invalid infiltration parameters at line 1291 of [INFIL] section:
  SC_SEWER_SC1000  0.100000   3.000000   0.000000   0.000000   0.000000  

  
  ERROR 235: invalid infiltration parameters at line 1340 of [INFIL] section:
  SC_SEWER_SC1108  0.100000   3.000000   0.000000   0.000000   0.000000  

  
  ERROR 235: invalid infiltration parameters at line 1342 of [INFIL] section:
  SC_SEWER_SC1112  0.100000   3.000000   0.000000   0.000000   0.000000  

  
  ERROR 235: invalid infiltration parameters at line 1362 of [INFIL] section:
  SC_SEWER_SC1152  0.100000   3.000000   0.000000   0.000000   0.000000  

  
  ERROR 235: invalid infiltration parameters at line 1363 of [INFIL] section:
  SC_SEWER_SC1154  0.100000   3.000000   0.000000   0.000000   0.000000  

  
  ERROR 235: invalid infiltration parameters at line 1375 of [INFIL] section:
  SC_SEWER_SC1180  0.100000   3.000000   0.000000   0.000000   0.000000  

  
  ERROR 235: invalid infiltration parameters at line 1380 of [INFIL] section:
  SC_SEWER_SC1266  0.100000   3.000000   0.000000   17280000.000000 0.000000  

  
  ERROR 235: invalid infiltration parameters at line 1381 of [INFIL] section:
  SC_SEWER_SC1268  0.100000   3.000000   0.000000   17280000.000000 0.000000  

  
  ERROR 235: invalid infiltration parameters at line 1382 of [INFIL] section:
  SC_SEWER_SC1270  0.100000   3.000000   0.000000   17280000.000000 0.000000  

  
  ERROR 235: invalid infiltration parameters at line 1383 of [INFIL] section:
  SC_SEWER_SC1272  0.100000   3.000000   0.000000   17280000.000000 0.000000  

  
  ERROR 235: invalid infiltration parameters at line 1384 of [INFIL] section:
  SC_SEWER_SC1274  0.100000   3.000000   0.000000   17280000.000000 0.000000  

  
  ERROR 235: invalid infiltration parameters at line 1385 of [INFIL] section:
  SC_SEWER_SC1276  0.100000   3.000000   0.000000   17280000.000000 0.000000  

  
  Maximum error count exceeded.

  Analysis begun on:  Fri Mar  6 12:48:50 2026
  Analysis ended on:  Fri Mar  6 12:48:50 2026
  Total elapsed time: < 1 sec