
  EPA STORM WATER MANAGEMENT MODEL - VERSION 5.2 (Build 5.2.4)
  ------------------------------------------------------------

  WARNING 04: minimum elevation drop used for Conduit CDT-57
  WARNING 04: minimum elevation drop used for Conduit SPM-357
  WARNING 02: maximum depth increased for Node MOK-001NODE
  WARNING 02: maximum depth increased for Node MOK-003NODE
  WARNING 02: maximum depth increased for Node MOK-012NODE
  WARNING 02: maximum depth increased for Node MOK-013NODE
  WARNING 02: maximum depth increased for Node PRV-001NODE
  WARNING 02: maximum depth increased for Node PRV-002NODE
  WARNING 02: maximum depth increased for Node PRV-005NODE
  WARNING 02: maximum depth increased for Node SMG-004NODE
  WARNING 02: maximum depth increased for Node SMG-007NODE
  WARNING 02: maximum depth increased for Node SMG-010NODE
  
  ****************
  Analysis Options
  ****************
  Flow Units ............... GPM
  Process Models:
    Rainfall/Runoff ........ NO
    RDII ................... NO
    Snowmelt ............... NO
    Groundwater ............ NO
    Flow Routing ........... YES
    Ponding Allowed ........ NO
    Water Quality .......... NO
  Flow Routing Method ...... DYNWAVE
  Surcharge Method ......... EXTRAN
  Starting Date ............ 01/01/2016 00:00:00
  Ending Date .............. 01/02/2016 00:00:00
  Antecedent Dry Days ...... 5.0
  Report Time Step ......... 00:01:00
  Routing Time Step ........ 5.00 sec
  Variable Time Step ....... YES
  Maximum Trials ........... 8
  Number of Threads ........ 1
  Head Tolerance ........... 0.000010 ft
  
  
  **************************        Volume        Volume
  Flow Routing Continuity        acre-feet      10^6 gal
  **************************     ---------     ---------
  Dry Weather Inflow .......         0.741         0.242
  Wet Weather Inflow .......         0.000         0.000
  Groundwater Inflow .......         0.000         0.000
  RDII Inflow ..............         0.000         0.000
  External Inflow ..........         0.000         0.000
  External Outflow .........         0.000         0.000
  Flooding Loss ............         0.021         0.007
  Evaporation Loss .........         0.000         0.000
  Exfiltration Loss ........         0.000         0.000
  Initial Stored Volume ....         0.156         0.051
  Final Stored Volume ......         0.891         0.290
  Continuity Error (%) .....        -1.665
  
  
  *************************
  Highest Continuity Errors
  *************************
  Node JBR-001NODE1 (100.00%)
  Node MOK-009NODE1 (100.00%)
  Node MOK-010NODE (100.00%)
  Node MOK-011NODE (100.00%)
  Node MOK-016NODE1 (100.00%)
  
  
  ***************************
  Time-Step Critical Elements
  ***************************
  Link SPM-357 (4.54%)
  Link PRV-007FM (3.21%)
  
  
  ********************************
  Highest Flow Instability Indexes
  ********************************
  Link SPM-47 (34)
  Link SMG-010NODE1-SMG-003NODE1 (29)
  Link SPM-12 (6)
  Link CDT-45 (5)
  Link SPM-334 (5)
  
  
  *********************************
  Most Frequent Nonconverging Nodes
  *********************************
  Node OUTFALL-001 (100.00%)
  Node MOK-002NODE1 (97.95%)
  Node SM-756 (80.95%)
  Node SMG-006NODE1 (78.95%)
  Node SMG-002NODE1 (78.55%)
  
  
  *************************
  Routing Time Step Summary
  *************************
  Minimum Time Step           :     0.41 sec
  Average Time Step           :     4.89 sec
  Maximum Time Step           :     5.00 sec
  % of Time in Steady State   :     0.00
  Average Iterations per Step :     8.00
  % of Steps Not Converging   :   100.00
  Time Step Frequencies       :
      5.000 -  0.910 sec      :    99.97 %
      0.910 -  0.166 sec      :     0.03 %
      0.166 -  0.030 sec      :     0.00 %
      0.030 -  0.005 sec      :     0.00 %
      0.005 -  0.001 sec      :     0.00 %
  
  
  ******************
  Node Depth Summary
  ******************
  
  ---------------------------------------------------------------------------------
                                 Average  Maximum  Maximum  Time of Max    Reported
                                   Depth    Depth      HGL   Occurrence   Max Depth
  Node                 Type         Feet     Feet     Feet  days hr:min        Feet
  ---------------------------------------------------------------------------------
  JBR-001NODE1         JUNCTION     0.00     0.00    80.34     1  00:00        0.00
  JCT-14               JUNCTION     1.63   107.66   198.66     0  00:18       97.29
  JCT-16               JUNCTION     0.02     0.20    82.20     0  21:16        0.20
  JCT-18               JUNCTION     0.96    25.33   102.33     0  23:08       13.59
  JCT-20               JUNCTION    15.28    82.68   145.68     0  20:43       69.12
  JCT-24               JUNCTION     0.00     0.01    92.01     0  23:09        0.01
  JCT-26               JUNCTION     0.00     0.00   109.00     0  00:00        0.00
  JCT-28               JUNCTION     0.15     0.26    88.26     0  21:38        0.26
  JCT-30               JUNCTION     0.00     0.00    95.00     0  00:00        0.00
  JCT-32               JUNCTION     0.00     0.00    95.00     0  00:00        0.00
  MCPS-001NODE         JUNCTION     7.89   100.08   152.38     0  20:43       87.62
  MOK-001NODE          JUNCTION     0.07    47.91   112.91     0  22:47       43.92
  MOK-001NODE1         JUNCTION     0.18     2.55    77.55     0  22:48        1.49
  MOK-001NODE2         JUNCTION     0.78    26.06   100.56     0  13:41       25.37
  MOK-002NODE          JUNCTION    32.64   203.46   243.76     0  00:18      193.15
  MOK-002NODE1         JUNCTION    10.32    92.76   169.76     0  00:18       81.82
  MOK-002NODE2         JUNCTION     0.12     0.28    86.28     0  00:26        0.28
  MOK-003NODE          JUNCTION    12.44    48.67   112.34     0  01:30       48.15
  MOK-004NODE          JUNCTION     8.08    71.56   122.73     0  11:30       66.07
  MOK-005NODE          JUNCTION     2.02    47.66   111.49     0  21:15       46.68
  MOK-006NODE          JUNCTION     7.66    80.17   125.17     0  19:42       75.69
  MOK-006NODE1         JUNCTION    12.28    45.07   117.07     0  11:30       43.87
  MOK-007NODE          JUNCTION     1.17    71.42   135.92     0  23:00       58.13
  MOK-008NODE          JUNCTION     7.97    52.88   107.13     0  17:44       48.81
  MOK-008NODE1         JUNCTION     5.32    31.20   104.20     0  14:52       26.29
  MOK-008NODE1A        JUNCTION     0.00     0.17    87.17     0  17:46        0.16
  MOK-009NODE          JUNCTION     5.20    38.04   102.04     0  13:41       37.77
  MOK-009NODE1         JUNCTION     0.10     0.53    75.53     1  00:00        0.53
  MOK-009NODE1A_A      JUNCTION     0.02     0.21    76.21     0  22:59        0.20
  MOK-010NODE          JUNCTION     0.02     0.02    74.18     0  00:00        0.02
  MOK-011NODE          JUNCTION     0.14     0.32    57.57     0  21:25        0.32
  MOK-012NODE          JUNCTION     0.73    37.71   107.71     0  21:47       36.13
  MOK-012NODE1         JUNCTION     0.54    37.99   110.99     0  21:47       30.08
  MOK-013NODE          JUNCTION     0.25    65.91   141.91     0  14:10       55.83
  MOK-014NODE          JUNCTION     0.00     0.00    82.00     0  00:00        0.00
  MOK-015NODE          JUNCTION     0.00     0.00    79.50     0  00:00        0.00
  MOK-015NODE1         JUNCTION     0.00     0.00    86.00     0  00:00        0.00
  MOK-016NODE          JUNCTION     0.05    62.86   142.86     0  08:43       10.24
  MOK-016NODE1         JUNCTION     0.03     0.07    73.07     1  00:00        0.07
  MOK-017NODE          JUNCTION     0.00     0.00    80.00     0  00:00        0.00
  MOK-017NODE1         JUNCTION     0.00     0.03    84.03     0  21:48        0.02
  MOK-018NODE          JUNCTION     0.02     0.02    72.52     0  00:00        0.02
  MOK-019NODE          JUNCTION     0.00     0.00    79.00     0  00:00        0.00
  MOK-019NODE1         JUNCTION     0.01     0.07    77.57     0  14:12        0.07
  MOK-019NODE1A        JUNCTION     0.00     0.00    87.00     0  00:00        0.00
  MOK-019NODE2         JUNCTION     0.00     0.00    84.00     0  00:00        0.00
  MOK-019NODE3         JUNCTION     0.03     0.04    77.52     0  11:02        0.04
  MOK-020NODE          JUNCTION     2.80    49.18   112.01     0  17:00       44.53
  MOK-021NODE          JUNCTION    13.35    28.59    89.34     0  07:13       25.44
  MOK-022NODE          JUNCTION     8.82   207.87   278.37     0  12:01      196.64
  MOK-022NODE1         JUNCTION    15.50   220.33   278.33     0  12:01      205.40
  MOK-022NODE2         JUNCTION     0.27     0.81    88.81     0  23:58        0.81
  MOK-022NODE_A        JUNCTION     0.11     0.24    80.53     0  00:26        0.24
  MOK-022NODE_B        JUNCTION     0.12     0.21    79.91     0  21:41        0.21
  PRV-001NODE          JUNCTION     0.01     0.01    74.01     0  00:00        0.01
  PRV-001NODE1         JUNCTION     3.04    38.40   104.40     0  23:08       24.58
  PRV-002NODE          JUNCTION     0.00     0.00    76.69     0  00:00        0.00
  PRV-003NODE          JUNCTION     1.03    25.43    97.98     0  08:54       20.46
  PRV-003NODE1         JUNCTION     0.10     2.85    77.95     0  22:48        1.40
  PRV-004NODE          JUNCTION     0.00     0.00    74.12     0  00:00        0.00
  PRV-004NODE1         JUNCTION     0.18     2.71    77.71     0  22:48        1.49
  PRV-005NODE          JUNCTION     0.00     0.00    71.40     0  00:00        0.00
  PRV-006NODE          JUNCTION     0.00     0.00    68.61     0  00:00        0.00
  PRV-006NODE1         JUNCTION     0.56    26.31   104.31     0  23:08       12.47
  PRV-007NODE          JUNCTION     6.75    18.13   111.93     0  22:25       17.31
  SM-390               JUNCTION     0.00     0.01    72.58     0  12:00        0.01
  SM-391               JUNCTION     0.03     0.04    70.73     0  11:13        0.04
  SM-392               JUNCTION     0.03     0.04    69.56     0  11:25        0.04
  SM-393               JUNCTION     0.03     0.04    68.41     0  12:00        0.04
  SM-396               JUNCTION     0.01     0.01    70.15     0  11:58        0.01
  SM-405               JUNCTION     0.02     0.12    67.80     0  10:50        0.12
  SM-406               JUNCTION     0.02     0.11    66.36     0  16:09        0.11
  SM-407               JUNCTION     0.05     0.11    64.94     0  10:56        0.11
  SM-413               JUNCTION     0.02     0.12    69.27     0  10:48        0.12
  SM-421               JUNCTION     0.02     0.13    70.34     0  10:45        0.13
  SM-422               JUNCTION     0.02     0.15    72.43     0  10:42        0.15
  SM-423               JUNCTION     0.02     0.22    74.25     0  19:17        0.22
  SM-424               JUNCTION     0.01     0.40    75.90     0  19:16        0.40
  SM-430               JUNCTION     0.03     0.08    69.63     0  21:26        0.08
  SM-432               JUNCTION     0.02     0.09    72.71     0  21:23        0.09
  SM-435               JUNCTION     0.02     0.10    76.67     0  09:30        0.10
  SM-439               JUNCTION     0.02     0.08    65.22     0  21:28        0.08
  SM-440               JUNCTION     0.05     0.09    63.89     0  21:29        0.09
  SM-4472              JUNCTION     0.12     0.15    58.50     0  11:06        0.15
  SM-448               JUNCTION     0.09     0.12    53.37     0  11:54        0.12
  SM-449               JUNCTION     0.08     0.11    54.60     0  11:52        0.11
  SM-450               JUNCTION     0.09     0.12    55.64     0  11:50        0.12
  SM-4500              JUNCTION     0.03     0.03    59.36     0  11:25        0.03
  SM-451               JUNCTION     0.09     0.12    56.57     0  11:48        0.12
  SM-452               JUNCTION     0.09     0.12    57.63     0  11:47        0.12
  SM-453               JUNCTION     0.08     1.77    62.36     0  00:10        1.67
  SM-454               JUNCTION     0.06     2.70    67.25     0  00:04        2.45
  SM-458               JUNCTION     0.07     1.41    59.92     0  00:10        1.24
  SM-459               JUNCTION     0.07     1.11    57.88     0  00:10        0.88
  SM-460               JUNCTION     0.10     0.61    51.86     0  00:29        0.60
  SM-461               JUNCTION     0.11     1.69    51.86     0  00:23        1.68
  SM-462               JUNCTION     0.11     2.47    51.96     0  00:28        2.47
  SM-468               JUNCTION     0.07     3.57    71.78     0  00:04        3.16
  SM-469               JUNCTION     0.10     8.45    83.00     0  00:00        4.71
  SM-470               JUNCTION     0.08     5.98    78.35     0  00:01        3.97
  SM-4714              JUNCTION     0.05     0.06    76.06     0  11:23        0.06
  SM-476               JUNCTION     0.05     0.06    69.36     0  12:00        0.06
  SM-478               JUNCTION     0.02     0.03    71.87     0  12:00        0.03
  SM-4793              JUNCTION     0.45     0.46    68.13     0  12:00        0.46
  SM-4799              JUNCTION     0.02     0.03    59.44     0  11:33        0.03
  SM-493               JUNCTION     0.02     0.12    80.76     0  21:18        0.12
  SM-510               JUNCTION     0.04     0.05    70.26     0  12:09        0.05
  SM-511               JUNCTION     0.04     0.06    69.31     0  12:14        0.06
  SM-522               JUNCTION     0.04     0.05    71.06     0  12:02        0.05
  SM-524               JUNCTION     0.04     0.05    72.87     0  11:54        0.05
  SM-525               JUNCTION     0.04     0.05    74.26     0  11:46        0.05
  SM-526               JUNCTION     0.04     0.05    76.02     0  11:36        0.05
  SM-529               JUNCTION     0.04     0.05    77.14     0  11:28        0.05
  SM-530               JUNCTION     0.04     0.05    78.20     0  11:22        0.05
  SM-532               JUNCTION     0.04     0.05    79.42     0  11:15        0.05
  SM-533               JUNCTION     0.04     0.05    79.90     0  11:09        0.05
  SM-535               JUNCTION     0.04     0.05    80.67     0  11:04        0.05
  SM-536               JUNCTION     0.01     0.02    77.85     0  12:00        0.02
  SM-546               JUNCTION     0.02     0.03    64.22     0  11:34        0.03
  SM-551               JUNCTION     0.05     0.11    62.32     0  11:00        0.11
  SM-552               JUNCTION     0.06     0.11    61.66     0  11:02        0.11
  SM-554               JUNCTION     0.06     0.11    58.94     0  11:07        0.11
  SM-555               JUNCTION     0.06     0.11    60.23     0  11:04        0.11
  SM-569               JUNCTION     0.05     0.11    63.49     0  10:58        0.11
  SM-580               JUNCTION     0.02     0.03    56.53     0  11:36        0.03
  SM-581               JUNCTION     0.03     0.04    58.19     0  11:35        0.04
  SM-593               JUNCTION     0.03     0.04    61.55     0  11:31        0.04
  SM-594               JUNCTION     0.03     0.04    65.13     0  11:23        0.04
  SM-599               JUNCTION     0.03     0.04    69.09     0  11:18        0.04
  SM-600               JUNCTION     0.03     0.04    72.60     0  11:13        0.04
  SM-604               JUNCTION     0.03     0.04    75.95     0  11:07        0.04
  SM-607               JUNCTION     0.01     0.01    81.01     0  12:00        0.01
  SM-609A              JUNCTION     0.09     0.14    57.49     0  11:09        0.14
  SM-610               JUNCTION     0.06     0.11    57.51     0  11:08        0.11
  SM-668               JUNCTION     0.03     0.05    70.60     0  21:00        0.05
  SM-670               JUNCTION     0.02     0.05    71.75     0  20:57        0.05
  SM-683               JUNCTION     0.02     0.05    73.85     0  20:53        0.05
  SM-684               JUNCTION     0.02     0.06    75.60     0  20:47        0.06
  SM-684A1             JUNCTION     0.02     0.09    84.09     0  20:43        0.09
  SM-708               JUNCTION     0.08     0.12    61.18     0  11:59        0.12
  SM-709               JUNCTION     0.08     0.12    60.69     0  12:01        0.12
  SM-710               JUNCTION     0.09     0.12    59.57     0  11:45        0.12
  SM-716               JUNCTION     0.08     0.12    62.66     0  11:58        0.12
  SM-717               JUNCTION     0.08     0.12    64.10     0  11:56        0.12
  SM-722               JUNCTION     0.06     0.26    70.07     0  11:11        0.26
  SM-723               JUNCTION     0.07     0.14    68.45     0  11:31        0.14
  SM-725               JUNCTION     0.07     0.12    66.95     0  11:51        0.12
  SM-726               JUNCTION     0.08     0.12    65.50     0  11:54        0.12
  SM-742               JUNCTION     0.02     0.03    74.69     0  12:00        0.03
  SM-743               JUNCTION     0.02     0.02    77.55     0  12:00        0.02
  SM-745               JUNCTION     0.02     0.02    81.14     0  12:00        0.02
  SM-746               JUNCTION     0.01     0.01    84.01     0  12:00        0.01
  SM-752               JUNCTION     0.01     0.02    81.18     0  12:00        0.02
  SM-756               JUNCTION     2.09     7.40    62.40     0  00:00        2.79
  SM-796               JUNCTION     0.03     0.03    47.00     0  11:16        0.03
  SM-808               JUNCTION     0.12     0.15    51.39     0  11:38        0.15
  SM-859               JUNCTION     0.02     0.02    63.38     0  11:19        0.02
  SMG-001NODE          JUNCTION     0.57     0.67    76.17     0  03:05        0.67
  SMG-001NODE1         JUNCTION     0.08     0.20    91.20     0  22:51        0.20
  SMG-002NODE          JUNCTION    22.32    60.98   101.81     0  03:53       58.22
  SMG-002NODE1         JUNCTION     7.16    35.15   100.15     0  03:53       32.16
  SMG-002NODE2         JUNCTION     0.29     0.48    72.48     0  15:07        0.48
  SMG-003NODE          JUNCTION    11.74    84.77   153.27     0  00:37       80.24
  SMG-003NODE1         JUNCTION    15.88    62.57   135.57     0  09:16       61.74
  SMG-003NODE2         JUNCTION     2.23    24.23   119.23     0  11:20       22.69
  SMG-003NODE2A        JUNCTION     0.04     0.24    99.24     0  14:35        0.24
  SMG-004NODE          JUNCTION     4.75    80.31   135.10     0  10:56       78.53
  SMG-005NODE          JUNCTION     0.22    51.56   109.06     0  14:50       19.28
  SMG-005NODEA         JUNCTION     0.01     0.10    79.10     0  14:51        0.09
  SMG-006NODE          JUNCTION     4.18   103.92   140.67     0  20:10       94.91
  SMG-006NODE1         JUNCTION     8.11    40.51   111.51     0  20:10       36.93
  SMG-006NODE1A        JUNCTION     0.13     0.42    80.42     0  20:13        0.42
  SMG-006NODE1A_1      JUNCTION    10.59    60.50   133.50     0  05:13       58.00
  SMG-007NODE          JUNCTION    23.68    82.82   134.82     0  03:04       82.36
  SMG-008NODE          JUNCTION     0.01     0.01    75.05     0  00:00        0.01
  SMG-008NODE1         JUNCTION     0.03     0.08   107.08     0  21:26        0.08
  SMG-008NODEA         JUNCTION     7.37    16.84   110.84     0  22:25       16.03
  SMG-009NODE          JUNCTION    11.71   106.74   162.74     0  07:59       95.29
  SMG-009NODE1         JUNCTION     0.27     0.50    97.50     0  20:50        0.50
  SMG-010NODE          JUNCTION     8.03    91.68   150.18     0  14:06       19.71
  SMG-010NODE1         JUNCTION    17.50    65.06   136.06     0  09:16       63.91
  OUTFALL-001          OUTFALL      0.00     0.00   126.50     0  00:00        0.00
  WW_MCPS-001          STORAGE      3.24     5.10    57.40     0  12:27        5.10
  WW_MOK-001           STORAGE      2.07     3.00    68.00     0  22:47        3.00
  WW_MOK-002           STORAGE      5.80    11.69    51.99     0  00:27       11.69
  WW_MOK-003           STORAGE      2.04     2.81    66.48     0  21:58        2.80
  WW_MOK-004           STORAGE      3.21     4.01    55.18     0  19:51        4.00
  WW_MOK-005           STORAGE      2.21     2.80    66.63     0  22:23        2.80
  WW_MOK-006           STORAGE      2.61     3.20    48.20     0  12:19        3.20
  WW_MOK-007           STORAGE      2.90     4.20    68.70     0  20:02        4.20
  WW_MOK-008           STORAGE      2.25     2.80    57.05     0  14:51        2.80
  WW_MOK-009           STORAGE      2.03     3.00    67.00     0  16:42        3.00
  WW_MOK-010           STORAGE      2.06     2.89    77.05     1  00:00        2.89
  WW_MOK-011           STORAGE      3.41     4.00    61.25     0  18:00        4.00
  WW_MOK-012           STORAGE      1.34     2.00    72.00     0  21:47        2.00
  WW_MOK-013           STORAGE      1.40     2.00    78.00     0  14:10        2.00
  WW_MOK-014           STORAGE      1.38     1.92    83.92     1  00:00        1.92
  WW_MOK-015           STORAGE      1.00     1.00    80.50     0  00:00        1.00
  WW_MOK-016           STORAGE      2.22     2.50    82.50     0  12:14        2.50
  WW_MOK-017           STORAGE      1.19     1.45    81.45     1  00:00        1.45
  WW_MOK-018           STORAGE      2.06     2.48    74.98     1  00:00        2.48
  WW_MOK-019           STORAGE      1.40     1.97    80.97     1  00:00        1.97
  WW_MOK-020           STORAGE      2.36     3.00    65.83     0  22:22        3.00
  WW_MOK-021           STORAGE      2.47     3.00    63.75     0  15:53        3.00
  WW_MOK-022           STORAGE      3.90     5.02    75.52     0  20:51        5.00
  WW_PRV-003           STORAGE      1.46     2.00    74.55     0  10:44        2.00
  WW_PRV-004           STORAGE      1.15     1.36    75.48     1  00:00        1.36
  WW_PRV-005           STORAGE      1.38     1.64    73.04     1  00:00        1.64
  WW_PRV-006           STORAGE      1.86     2.66    71.27     1  00:00        2.66
  WW_PRV-007           STORAGE      0.94     1.21    95.01     0  11:45        1.21
  WW_PRV001            STORAGE      1.61     2.48    76.48     1  00:00        2.48
  WW_PRV002            STORAGE      1.00     1.00    77.69     0  00:00        1.00
  WW_SMG-001           STORAGE      4.21     5.00    80.50     0  21:51        5.00
  WW_SMG-002           STORAGE      2.65     3.52    44.35     0  12:40        3.51
  WW_SMG-003           STORAGE      1.30     2.11    70.61     0  11:44        2.10
  WW_SMG-004           STORAGE      2.30     3.00    57.79     0  11:45        3.00
  WW_SMG-005           STORAGE      3.05     4.00    61.50     0  14:49        4.00
  WW_SMG-006           STORAGE      3.21     4.20    40.95     0  20:10        4.20
  WW_SMG-007           STORAGE      3.22     4.01    56.01     0  14:32        4.00
  WW_SMG-008           STORAGE      1.98     2.00    77.04     0  00:00        1.98
  WW_SMG-009           STORAGE      4.47     5.01    61.01     0  20:22        5.01
  WW_SMG-010           STORAGE      3.21     4.50    63.00     0  14:05        4.50
  
  
  *******************
  Node Inflow Summary
  *******************
  
  -------------------------------------------------------------------------------------------------
                                  Maximum  Maximum                  Lateral       Total        Flow
                                  Lateral    Total  Time of Max      Inflow      Inflow     Balance
                                   Inflow   Inflow   Occurrence      Volume      Volume       Error
  Node                 Type           GPM      GPM  days hr:min    10^6 gal    10^6 gal     Percent
  -------------------------------------------------------------------------------------------------
  JBR-001NODE1         JUNCTION      0.00     0.02     1  00:00           0    1.15e-06       1.149 gal
  JCT-14               JUNCTION      0.00   678.71     0  00:14           0      0.0566       0.690
  JCT-16               JUNCTION      0.00   379.19     0  21:16           0     0.00362       1.619
  JCT-18               JUNCTION      0.00    73.54     0  23:08           0    0.000412    1877.985
  JCT-20               JUNCTION      0.00   352.30     0  20:43           0       0.001      -1.872
  JCT-24               JUNCTION      0.00   129.26     0  23:08           0    9.88e-05      97.687 gal
  JCT-26               JUNCTION      0.00     0.00     0  00:00           0           0       0.000 gal
  JCT-28               JUNCTION      0.00   143.56     0  21:08           0       0.105       3.595
  JCT-30               JUNCTION      0.00     0.00     0  00:00           0           0       0.000 gal
  JCT-32               JUNCTION      0.00     0.00     0  00:00           0           0       0.000 gal
  MCPS-001NODE         JUNCTION      0.00  2040.00     0  00:00           0     0.00134      33.631
  MOK-001NODE          JUNCTION      0.00  1200.00     0  00:00           0    0.000285      81.514
  MOK-001NODE1         JUNCTION      0.00   259.33     0  22:48           0     0.00112      23.419
  MOK-001NODE2         JUNCTION      0.00   972.93     0  10:45           0     0.00162      65.235
  MOK-002NODE          JUNCTION      0.00  1590.00     0  00:00           0      0.0567       0.803
  MOK-002NODE1         JUNCTION      0.00   534.17     0  00:18           0      0.0573       4.578
  MOK-002NODE2         JUNCTION      0.00   684.50     0  20:04           0      0.0769       0.779
  MOK-003NODE          JUNCTION      0.00  1240.00     0  00:00           0     0.00764       1.232
  MOK-004NODE          JUNCTION      0.00  1640.00     0  00:00           0      0.0243      32.728
  MOK-005NODE          JUNCTION      0.00  1200.00     0  00:00           0     0.00389       7.269
  MOK-006NODE          JUNCTION      0.00  1600.00     0  00:00           0     0.00432      19.410
  MOK-006NODE1         JUNCTION      0.00   527.58     0  11:31           0      0.0305      35.772
  MOK-007NODE          JUNCTION      0.00   800.00     0  00:00           0     0.00175      64.739
  MOK-008NODE          JUNCTION      0.00  1200.00     0  00:00           0     0.00207      18.833
  MOK-008NODE1         JUNCTION      0.00   461.00     0  14:51           0     0.00175      90.526
  MOK-008NODE1A        JUNCTION      0.00   248.21     0  17:46           0    0.000919       1.708
  MOK-009NODE          JUNCTION      0.00  1300.00     0  00:00           0     0.00112      -7.418
  MOK-009NODE1         JUNCTION      0.00   126.59     0  17:46           0     0.00177    1767.025 gal
  MOK-009NODE1A_A      JUNCTION      0.00   458.50     0  22:58           0    0.000982       6.510
  MOK-010NODE          JUNCTION      0.00   860.00     0  00:00           0    2.93e-06       2.931 gal
  MOK-011NODE          JUNCTION      0.00  1200.00     0  00:00           0     0.00124    1241.904 gal
  MOK-012NODE          JUNCTION      0.00  1200.00     0  00:00           0     0.00035      -3.367
  MOK-012NODE1         JUNCTION      0.00   356.26     0  14:48           0    0.000465     354.212
  MOK-013NODE          JUNCTION      0.00   136.00     0  00:00           0    9.96e-05      11.203
  MOK-014NODE          JUNCTION      0.00   134.00     0  00:00           0    4.57e-07       0.457 gal
  MOK-015NODE          JUNCTION      0.00   134.00     0  00:00           0    4.57e-07       0.457 gal
  MOK-015NODE1         JUNCTION      0.00     0.00     0  00:00           0           0       0.000 gal
  MOK-016NODE          JUNCTION      0.00   134.00     0  00:00           0    0.000206     -25.439
  MOK-016NODE1         JUNCTION      0.00    49.91     0  20:25           0    0.000277     276.553 gal
  MOK-017NODE          JUNCTION      0.00    87.50     0  00:00           0    2.98e-07       0.298 gal
  MOK-017NODE1         JUNCTION      0.00    18.50     0  21:48           0    1.28e-05       7.360
  MOK-018NODE          JUNCTION      0.00  1360.00     0  00:00           0    4.64e-06       4.635 gal
  MOK-019NODE          JUNCTION      0.00   134.00     0  00:00           0    4.57e-07       0.014 gal
  MOK-019NODE1         JUNCTION      0.00   105.16     0  21:48           0     0.00018      95.918
  MOK-019NODE1A        JUNCTION      0.00     0.00     0  00:00           0           0       0.000 gal
  MOK-019NODE2         JUNCTION      0.00     0.00     0  00:00           0           0       0.000 gal
  MOK-019NODE3         JUNCTION      4.64     4.64     0  11:00     0.00445     0.00445       0.081
  MOK-020NODE          JUNCTION      0.00  1600.00     0  00:00           0      0.0022     144.594
  MOK-021NODE          JUNCTION      0.00   900.00     0  00:00           0     0.00223       4.516
  MOK-022NODE          JUNCTION      0.00  6900.00     0  00:00           0       0.169      -6.265
  MOK-022NODE1         JUNCTION      0.00  2642.13     0  23:57           0        0.18      23.526
  MOK-022NODE2         JUNCTION      0.00  1929.66     0  23:57           0       0.146      70.322
  MOK-022NODE_A        JUNCTION      0.00   204.79     0  00:26           0      0.0677       0.040
  MOK-022NODE_B        JUNCTION      0.00   274.63     0  21:41           0       0.169       0.024
  PRV-001NODE          JUNCTION      0.00   184.00     0  00:00           0    6.27e-07       0.627 gal
  PRV-001NODE1         JUNCTION      0.00   159.52     0  23:08           0      0.0239    4570.607
  PRV-002NODE          JUNCTION      0.00    90.00     0  00:00           0    3.07e-07       0.307 gal
  PRV-003NODE          JUNCTION      0.00    45.00     0  00:00           0    0.000892       0.624
  PRV-003NODE1         JUNCTION      0.00   353.97     0  22:47           0     0.00195      25.554
  PRV-004NODE          JUNCTION      0.00    45.00     0  00:00           0    1.53e-07       0.153 gal
  PRV-004NODE1         JUNCTION      0.00   306.28     0  22:47           0     0.00209       3.348
  PRV-005NODE          JUNCTION      0.00    90.00     0  00:00           0    3.07e-07       0.307 gal
  PRV-006NODE          JUNCTION      0.00    90.00     0  00:00           0    3.07e-07       0.307 gal
  PRV-006NODE1         JUNCTION      0.00   290.57     0  22:06           0      0.0857     259.136
  PRV-007NODE          JUNCTION      0.00    78.00     0  00:00           0     0.00973       0.213
  SM-390               JUNCTION      0.06     0.06     0  11:00    5.57e-05    5.57e-05       1.185
  SM-391               JUNCTION      2.46     2.52     0  12:00     0.00236     0.00241       0.406
  SM-392               JUNCTION      0.00     2.52     0  11:18           0      0.0024       0.359
  SM-393               JUNCTION      0.00     2.52     0  11:25           0      0.0024       0.366
  SM-396               JUNCTION      0.30     0.30     0  11:00    0.000288    0.000288       0.367
  SM-405               JUNCTION      0.00    28.60     0  10:48           0     0.00267       0.328
  SM-406               JUNCTION      0.00    24.94     0  10:51           0     0.00266       0.563
  SM-407               JUNCTION      3.94    25.67     0  10:54     0.00378     0.00642       0.326
  SM-413               JUNCTION      0.46    32.01     0  10:46    0.000442     0.00267       0.104
  SM-421               JUNCTION      0.00    40.72     0  10:43           0     0.00227       1.825
  SM-422               JUNCTION      0.00    74.42     0  10:40           0     0.00231       1.606
  SM-423               JUNCTION      0.00   228.73     0  19:16           0     0.00238       3.227
  SM-424               JUNCTION      0.19   304.74     0  10:38    0.000185     0.00232      -2.454
  SM-430               JUNCTION      0.52    22.76     0  21:24    0.000501     0.00398       0.443
  SM-432               JUNCTION      0.00    26.46     0  21:21           0     0.00352       1.025
  SM-435               JUNCTION      0.00    36.05     0  21:19           0     0.00356       1.226
  SM-439               JUNCTION      0.00    19.69     0  21:26           0     0.00397       0.877
  SM-440               JUNCTION      7.22    24.31     0  21:28     0.00692      0.0108       0.173
  SM-4472              JUNCTION     58.38    58.38     0  11:00      0.0559      0.0559       0.028
  SM-448               JUNCTION      2.06    28.08     0  11:52     0.00197      0.0242       0.326
  SM-449               JUNCTION      0.00    26.33     0  11:50           0      0.0223       0.237
  SM-450               JUNCTION      0.00    26.54     0  11:49           0      0.0223       0.191
  SM-4500              JUNCTION      1.24     1.24     0  11:00     0.00118     0.00118       0.222
  SM-451               JUNCTION      0.00    26.74     0  11:47           0      0.0224       0.190
  SM-452               JUNCTION      0.06    27.32     0  11:45    5.99e-05      0.0224       0.291
  SM-453               JUNCTION      0.00   697.14     0  00:07           0      0.0293       0.145
  SM-454               JUNCTION      0.00   728.20     0  00:04           0      0.0184       0.019
  SM-458               JUNCTION      1.15   683.07     0  00:08      0.0011      0.0303       0.081
  SM-459               JUNCTION      0.00   675.31     0  00:09           0      0.0303       0.086
  SM-460               JUNCTION      1.73   169.31     0  00:27     0.00166      0.0264       0.312
  SM-461               JUNCTION      0.00   187.09     0  00:22           0      0.0274       0.114
  SM-462               JUNCTION      1.58   234.18     0  00:34     0.00152      0.0297       0.113
  SM-468               JUNCTION      0.61   794.62     0  00:02    0.000581      0.0185       0.040
  SM-469               JUNCTION      0.32   352.70     0  20:43    0.000305     0.00132     -92.594
  SM-470               JUNCTION      0.00  1055.43     0  00:01           0      0.0179       0.111
  SM-4714              JUNCTION     13.65    13.65     0  11:00      0.0131      0.0131       0.041
  SM-476               JUNCTION      6.56     8.08     0  12:00     0.00629     0.00771       0.276
  SM-478               JUNCTION      0.00     1.51     0  12:00           0     0.00143       0.603
  SM-4793              JUNCTION      0.00     8.08     0  12:00           0     0.00769       0.558
  SM-4799              JUNCTION      1.05     1.05     0  11:00     0.00101     0.00101       0.252
  SM-493               JUNCTION      0.00    59.15     0  21:16           0     0.00357       0.130
  SM-510               JUNCTION      0.00     4.40     0  12:05           0     0.00401       0.420
  SM-511               JUNCTION      0.00     4.39     0  12:09           0     0.00399       0.501
  SM-522               JUNCTION      0.00     4.40     0  11:58           0     0.00403       0.644
  SM-524               JUNCTION      0.00     4.40     0  11:48           0     0.00406       0.750
  SM-525               JUNCTION      0.00     4.40     0  11:41           0     0.00409       0.746
  SM-526               JUNCTION      0.00     4.40     0  11:31           0     0.00412       0.653
  SM-529               JUNCTION      0.00     4.40     0  11:25           0     0.00414       0.500
  SM-530               JUNCTION      0.00     4.40     0  11:18           0     0.00416       0.529
  SM-532               JUNCTION      0.00     4.41     0  11:12           0     0.00418       0.370
  SM-533               JUNCTION      0.00     4.40     0  11:07           0     0.00419       0.296
  SM-535               JUNCTION      4.38     4.38     0  11:00      0.0042      0.0042       0.164
  SM-536               JUNCTION      0.13     0.13     0  11:00    0.000122    0.000122       2.951
  SM-546               JUNCTION      1.45     1.45     0  11:00     0.00139     0.00139       0.191
  SM-551               JUNCTION      0.00    24.07     0  10:59           0     0.00809       0.212
  SM-552               JUNCTION      1.46    25.07     0  11:00      0.0014     0.00947       0.184
  SM-554               JUNCTION      2.39    26.06     0  11:05     0.00229      0.0117       0.260
  SM-555               JUNCTION      0.00    24.61     0  11:02           0     0.00946       0.303
  SM-569               JUNCTION      1.79    25.30     0  10:56     0.00171     0.00812       0.284
  SM-580               JUNCTION      0.00     4.64     0  11:35           0     0.00437       0.113
  SM-581               JUNCTION      0.00     4.65     0  11:31           0     0.00438       0.262
  SM-593               JUNCTION      0.00     4.65     0  11:25           0     0.00439       0.323
  SM-594               JUNCTION      0.00     4.65     0  11:20           0     0.00441       0.348
  SM-599               JUNCTION      0.00     4.65     0  11:15           0     0.00442       0.342
  SM-600               JUNCTION      0.00     4.65     0  11:09           0     0.00444       0.316
  SM-604               JUNCTION      0.00     4.65     0  11:03           0     0.00445       0.219
  SM-607               JUNCTION      0.20     0.20     0  11:00     0.00019     0.00019       0.635
  SM-609A              JUNCTION     13.40    38.49     0  11:08      0.0128      0.0245       0.053
  SM-610               JUNCTION      0.00    25.37     0  11:07           0      0.0117       0.175
  SM-668               JUNCTION      0.00     5.34     0  20:58           0     0.00189       0.404
  SM-670               JUNCTION      0.00     5.48     0  20:54           0      0.0019       0.571
  SM-683               JUNCTION      0.00     5.94     0  20:48           0     0.00192       0.639
  SM-684               JUNCTION      1.22     6.41     0  20:43     0.00117     0.00192       0.236
  SM-684A1             JUNCTION      0.00   181.41     0  20:43           0    0.000901      19.298
  SM-708               JUNCTION      0.00    27.91     0  11:58           0      0.0215       0.180
  SM-709               JUNCTION      0.00    27.47     0  12:00           0      0.0215       0.121
  SM-710               JUNCTION      1.02    28.23     0  11:43    0.000976      0.0224       0.253
  SM-716               JUNCTION      0.00    29.17     0  11:56           0      0.0216       0.248
  SM-717               JUNCTION      1.98    31.24     0  11:54     0.00189      0.0216       0.246
  SM-722               JUNCTION      6.82   210.05     0  11:29     0.00654      0.0141      -0.854
  SM-723               JUNCTION      0.00   107.54     0  11:29           0      0.0142       2.346
  SM-725               JUNCTION      0.00    36.68     0  11:49           0      0.0139       1.026
  SM-726               JUNCTION      6.32    33.04     0  11:52     0.00605      0.0198       0.356
  SM-742               JUNCTION      0.41     1.51     0  12:00    0.000396     0.00144       0.499
  SM-743               JUNCTION      0.33     1.10     0  12:00     0.00032     0.00105       0.656
  SM-745               JUNCTION      0.48     0.77     0  12:00    0.000464    0.000733       0.675
  SM-746               JUNCTION      0.28     0.28     0  11:00    0.000271    0.000271       0.868
  SM-752               JUNCTION      0.24     0.24     0  11:00    0.000231    0.000231       1.273
  SM-756               JUNCTION      6.68   822.14     0  00:00      0.0064     0.00649       1.390
  SM-796               JUNCTION      2.76     2.76     0  11:00     0.00264     0.00264       0.106
  SM-808               JUNCTION     56.13    56.13     0  11:00      0.0538      0.0538       0.029
  SM-859               JUNCTION      1.10     1.10     0  11:00     0.00105     0.00105       0.185
  SMG-001NODE          JUNCTION      0.00  1200.00     0  00:00           0     0.00724       7.083
  SMG-001NODE1         JUNCTION      0.00   218.97     0  18:59           0      0.0188      62.771
  SMG-002NODE          JUNCTION      0.00  1560.00     0  00:00           0      0.0535       0.596
  SMG-002NODE1         JUNCTION      0.00   740.86     0  02:08           0       0.115       3.462
  SMG-002NODE2         JUNCTION      0.00   459.27     0  14:51           0       0.103       4.286
  SMG-003NODE          JUNCTION      0.00  2600.00     0  00:00           0      0.0129      -2.020
  SMG-003NODE1         JUNCTION      0.00   993.04     0  08:48           0       0.022      10.767
  SMG-003NODE2         JUNCTION      0.00   836.33     0  10:56           0      0.0255      13.137
  SMG-003NODE2A        JUNCTION      0.00   587.63     0  14:34           0      0.0201       1.058
  SMG-004NODE          JUNCTION      0.00  1640.00     0  00:00           0      0.0063       3.302
  SMG-005NODE          JUNCTION      0.00  1760.00     0  00:00           0    0.000601      90.421
  SMG-005NODEA         JUNCTION      0.00   402.31     0  14:50           0    0.000315       5.530
  SMG-006NODE          JUNCTION      0.00  2700.00     0  00:00           0     0.00214      69.311
  SMG-006NODE1         JUNCTION      0.00   644.21     0  20:12           0      0.0581       6.807
  SMG-006NODE1A        JUNCTION      0.00   644.15     0  20:12           0      0.0626       0.796
  SMG-006NODE1A_1      JUNCTION      0.00   720.00     0  05:12           0      0.0567       1.666
  SMG-007NODE          JUNCTION      0.00  2040.00     0  00:00           0      0.0554      -0.333
  SMG-008NODE          JUNCTION      0.00  1800.00     0  00:00           0    6.13e-06       6.135 gal
  SMG-008NODE1         JUNCTION      0.00   141.21     0  21:26           0     0.00782       0.999
  SMG-008NODEA         JUNCTION      0.00    42.04     0  22:25           0     0.00996      46.107
  SMG-009NODE          JUNCTION      0.00  2120.00     0  00:00           0       0.114       1.292
  SMG-009NODE1         JUNCTION      0.00   574.19     0  20:50           0       0.112       6.619
  SMG-010NODE          JUNCTION      0.00  2040.00     0  00:00           0    0.000481     759.297
  SMG-010NODE1         JUNCTION      0.00   264.49     0  04:54           0      0.0091      22.590
  OUTFALL-001          OUTFALL       0.00     0.00     0  00:00           0           0       0.000 gal
  WW_MCPS-001          STORAGE       1.64     1.64     0  11:00     0.00157     0.00201       0.217
  WW_MOK-001           STORAGE       0.00     0.30     0  11:52           0    0.000554       0.131
  WW_MOK-002           STORAGE       0.00   670.22     0  00:10           0      0.0603       0.109
  WW_MOK-003           STORAGE       0.00     8.08     0  12:00           0     0.00774       0.173
  WW_MOK-004           STORAGE       0.00    38.46     0  11:09           0       0.025       0.223
  WW_MOK-005           STORAGE       0.00     4.39     0  12:14           0     0.00436       0.054
  WW_MOK-006           STORAGE       0.00     4.64     0  11:36           0     0.00483       0.237
  WW_MOK-007           STORAGE       0.00     5.25     0  21:00           0     0.00249       0.105
  WW_MOK-008           STORAGE       0.00     2.29     0  11:34           0     0.00267       0.226
  WW_MOK-009           STORAGE       1.19     1.19     0  11:00     0.00114     0.00128       1.293
  WW_MOK-010           STORAGE       0.00     0.24     0  12:00           0    0.000471       0.098
  WW_MOK-011           STORAGE       0.00     1.45     0  11:30           0     0.00198      -0.000
  WW_MOK-012           STORAGE       0.40     0.40     0  11:00    0.000387    0.000481       0.765
  WW_MOK-013           STORAGE       0.00     0.20     0  12:00           0    0.000261       8.749
  WW_MOK-014           STORAGE       0.09     0.09     0  11:00    8.71e-05    0.000181       0.000
  WW_MOK-015           STORAGE       0.00     0.00     0  00:00           0     9.4e-05       0.000
  WW_MOK-016           STORAGE       0.26     0.26     0  11:00    0.000246    0.000434       0.131
  WW_MOK-017           STORAGE       0.04     0.04     0  11:00    4.29e-05    0.000137      -0.000
  WW_MOK-018           STORAGE       0.00     0.12     0  12:00           0    0.000419      -0.001
  WW_MOK-019           STORAGE       0.10     0.10     0  11:00    9.14e-05     0.00016      18.126
  WW_MOK-020           STORAGE       0.00     2.52     0  12:00           0     0.00279       0.209
  WW_MOK-021           STORAGE       2.56     2.56     0  11:00     0.00245     0.00314       0.008
  WW_MOK-022           STORAGE       0.00   273.41     0  21:41           0       0.172       0.085
  WW_PRV-003           STORAGE       1.00     1.00     0  11:00     0.00096     0.00101       3.023
  WW_PRV-004           STORAGE       0.04     0.04     0  11:00    3.37e-05    8.65e-05      20.365
  WW_PRV-005           STORAGE       0.04     0.04     0  11:00    4.21e-05    0.000155      -0.000
  WW_PRV-006           STORAGE       0.13     0.13     0  11:00    0.000128    0.000197      39.644
  WW_PRV-007           STORAGE      10.19    10.19     0  11:00     0.00976     0.00983       0.000
  WW_PRV001            STORAGE       0.15     0.15     0  11:00     0.00014    0.000234       0.000
  WW_PRV002            STORAGE       0.00     0.00     0  00:00           0    5.29e-05      -0.253
  WW_SMG-001           STORAGE       7.65     7.65     0  11:00     0.00733     0.00864      -0.000
  WW_SMG-002           STORAGE       0.00    56.13     0  11:44           0      0.0542       0.256
  WW_SMG-003           STORAGE       0.00    13.65     0  11:44           0      0.0132       0.407
  WW_SMG-004           STORAGE       0.00   121.69     0  00:00           0     0.00674       0.001
  WW_SMG-005           STORAGE       0.00     1.10     0  11:19           0     0.00199       0.173
  WW_SMG-006           STORAGE       0.00     2.76     0  11:14           0     0.00358       0.219
  WW_SMG-007           STORAGE       0.00    58.38     0  11:50           0      0.0568       0.267
  WW_SMG-008           STORAGE       0.00     0.00     0  00:00           0    0.000752       0.000
  WW_SMG-009           STORAGE       6.48   151.15     0  15:07     0.00621       0.118       0.488
  WW_SMG-010           STORAGE       0.99     0.99     0  11:00    0.000946     0.00143       0.136
  
  
  **********************
  Node Surcharge Summary
  **********************
  
  Surcharging occurs when water rises above the top of the highest conduit.
  ---------------------------------------------------------------------
                                               Max. Height   Min. Depth
                                   Hours       Above Crown    Below Rim
  Node                 Type      Surcharged           Feet         Feet
  ---------------------------------------------------------------------
  JCT-14               JUNCTION        0.47        107.161        0.000
  JCT-18               JUNCTION        4.09         25.000        0.000
  JCT-20               JUNCTION       24.00         82.009        0.000
  MCPS-001NODE         JUNCTION       11.54         99.578        0.000
  MOK-001NODE          JUNCTION        1.20         47.579        0.000
  MOK-001NODE1         JUNCTION        1.20          2.047        0.453
  MOK-001NODE2         JUNCTION       11.24         25.560        0.000
  MOK-002NODE          JUNCTION       22.01        202.956        0.000
  MOK-002NODE1         JUNCTION       23.69         92.262        0.000
  MOK-003NODE          JUNCTION       22.49         48.337        0.000
  MOK-004NODE          JUNCTION       13.85         70.562        0.000
  MOK-005NODE          JUNCTION       16.99         47.164        0.000
  MOK-006NODE          JUNCTION       15.41         79.668        0.000
  MOK-006NODE1         JUNCTION       19.89         44.069        0.000
  MOK-007NODE          JUNCTION        3.95         70.918        0.000
  MOK-008NODE          JUNCTION       11.66         52.376        0.000
  MOK-008NODE1         JUNCTION        9.13         30.698        0.000
  MOK-009NODE          JUNCTION       13.26         37.541        0.000
  MOK-012NODE          JUNCTION       14.14         37.378        0.000
  MOK-012NODE1         JUNCTION        2.21         37.653        0.000
  MOK-013NODE          JUNCTION        9.83         65.742        0.000
  MOK-016NODE          JUNCTION        0.08         62.692        0.000
  MOK-020NODE          JUNCTION        7.00         48.683        0.000
  MOK-021NODE          JUNCTION       16.77         28.093        0.000
  MOK-022NODE          JUNCTION        2.18        206.871        0.000
  MOK-022NODE1         JUNCTION       12.35        219.329        0.000
  PRV-001NODE1         JUNCTION        4.37         37.405        0.000
  PRV-003NODE          JUNCTION       17.56         25.265        0.000
  PRV-003NODE1         JUNCTION        0.18          2.347        0.053
  PRV-004NODE1         JUNCTION        1.20          2.207        0.293
  PRV-006NODE1         JUNCTION        0.88         25.310        0.000
  PRV-007NODE          JUNCTION       21.62         17.965        0.000
  SM-453               JUNCTION        0.27          1.106        2.637
  SM-454               JUNCTION        0.35          2.037        6.746
  SM-458               JUNCTION        0.25          0.739        5.085
  SM-459               JUNCTION        0.23          0.439        5.624
  SM-461               JUNCTION        0.17          1.024       12.639
  SM-462               JUNCTION        0.24          1.639       14.538
  SM-468               JUNCTION        0.36          2.899        8.725
  SM-469               JUNCTION        0.02          3.733        0.000
  SM-470               JUNCTION        0.38          5.309        4.655
  SM-756               JUNCTION       24.00          6.735       11.598
  SMG-001NODE          JUNCTION       20.92          0.000        0.000
  SMG-002NODE          JUNCTION       23.82         60.477        0.000
  SMG-002NODE1         JUNCTION       20.25         34.488        0.000
  SMG-003NODE          JUNCTION       22.84         84.267        0.000
  SMG-003NODE1         JUNCTION       14.90         61.900        0.000
  SMG-003NODE2         JUNCTION       12.65         23.568        0.000
  SMG-004NODE          JUNCTION       17.87         79.973        0.000
  SMG-005NODE          JUNCTION        0.02         51.065        0.000
  SMG-006NODE          JUNCTION        3.85        103.415        0.000
  SMG-006NODE1         JUNCTION       20.40         40.006        0.000
  SMG-006NODE1A_1      JUNCTION       18.73         59.997        0.000
  SMG-007NODE          JUNCTION       23.68         81.821        0.000
  SMG-008NODEA         JUNCTION       13.59         16.342        0.000
  SMG-009NODE          JUNCTION        8.42        106.071        0.000
  SMG-010NODE          JUNCTION        9.90         91.348        0.000
  SMG-010NODE1         JUNCTION       19.08         64.396        0.000
  
  
  *********************
  Node Flooding Summary
  *********************
  
  Flooding refers to all water that overflows a node, whether it ponds or not.
  --------------------------------------------------------------------------
                                                             Total   Maximum
                                 Maximum   Time of Max       Flood    Ponded
                        Hours       Rate    Occurrence      Volume     Depth
  Node                 Flooded       GPM   days hr:min    10^6 gal      Feet
  --------------------------------------------------------------------------
  SMG-001NODE             0.20    600.00      0  03:05       0.007     0.000
  
  
  **********************
  Storage Volume Summary
  **********************
  
  ------------------------------------------------------------------------------------------------
                         Average    Avg   Evap  Exfil     Maximum    Max    Time of Max    Maximum
                          Volume   Pcnt   Pcnt   Pcnt      Volume   Pcnt     Occurrence    Outflow
  Storage Unit          1000 ftł   Full   Loss   Loss    1000 ftł   Full    days hr:min        GPM
  ------------------------------------------------------------------------------------------------
  WW_MCPS-001              0.092   22.8    0.0    0.0       0.144   35.9       0  12:27    2040.00
  WW_MOK-001               0.049   20.7    0.0    0.0       0.071   30.0       0  22:47    1200.00
  WW_MOK-002               0.245   25.5    0.0    0.0       0.494   51.5       0  00:27    1590.00
  WW_MOK-003               0.017   16.6    0.0    0.0       0.023   22.8       0  21:58    1240.00
  WW_MOK-004               0.091   19.7    0.0    0.0       0.113   24.6       0  19:51    1640.00
  WW_MOK-005               0.064   13.7    0.0    0.0       0.081   17.3       0  22:23    1200.00
  WW_MOK-006               0.074   16.5    0.0    0.0       0.091   20.3       0  12:19    1600.00
  WW_MOK-007               0.107   19.4    0.0    0.0       0.154   28.0       0  20:02     800.00
  WW_MOK-008               0.080   13.4    0.0    0.0       0.100   16.7       0  14:51    1200.00
  WW_MOK-009               0.026   20.3    0.0    0.0       0.038   30.0       0  16:42    1300.00
  WW_MOK-010               0.044   17.4    0.0    0.0       0.062   24.4       1  00:00     860.00
  WW_MOK-011               0.091   24.0    0.0    0.0       0.107   28.1       0  18:00    1200.00
  WW_MOK-012               0.017   19.1    0.0    0.0       0.025   28.6       0  21:47    1200.00
  WW_MOK-013               0.013   23.3    0.0    0.0       0.019   33.3       0  14:10     136.00
  WW_MOK-014               0.017   23.0    0.0    0.0       0.024   32.0       1  00:00     134.00
  WW_MOK-015               0.013   16.6    0.0    0.0       0.013   16.7       0  00:00     134.00
  WW_MOK-016               0.028   37.0    0.0    0.0       0.031   41.7       0  12:14     134.00
  WW_MOK-017               0.015   19.8    0.0    0.0       0.018   24.2       1  00:00      87.50
  WW_MOK-018               0.046   12.9    0.0    0.0       0.055   15.5       1  00:00    1360.00
  WW_MOK-019               0.013   23.3    0.0    0.0       0.018   32.8       1  00:00     134.00
  WW_MOK-020               0.063   16.7    0.0    0.0       0.080   21.2       0  22:22    1600.00
  WW_MOK-021               0.114    9.8    0.0    0.0       0.139   11.9       0  15:53     900.00
  WW_MOK-022               0.468   26.9    0.0    0.0       0.602   34.6       0  20:51    6900.00
  WW_PRV-003               0.010   18.1    0.0    0.0       0.014   24.9       0  10:44      45.00
  WW_PRV-004               0.008   14.3    0.0    0.0       0.010   16.9       1  00:00      45.00
  WW_PRV-005               0.017   16.1    0.0    0.0       0.021   19.1       1  00:00      90.00
  WW_PRV-006               0.013   23.3    0.0    0.0       0.019   33.3       1  00:00      90.00
  WW_PRV-007               0.012   15.7    0.0    0.0       0.015   20.1       0  11:45      78.00
  WW_PRV001                0.020   23.0    0.0    0.0       0.031   35.4       1  00:00     184.00
  WW_PRV002                0.007   15.8    0.0    0.0       0.007   15.8       0  00:00      90.00
  WW_SMG-001               0.211   21.0    0.0    0.0       0.251   25.0       0  21:51    1200.00
  WW_SMG-002               0.071   10.1    0.0    0.0       0.094   13.5       0  12:40    1560.00
  WW_SMG-003               0.034    9.5    0.0    0.0       0.055   15.3       0  11:44    2600.00
  WW_SMG-004               0.061   10.4    0.0    0.0       0.080   13.7       0  11:45    1640.10
  WW_SMG-005               0.153   13.0    0.0    0.0       0.201   17.0       0  14:49    1760.00
  WW_SMG-006               0.161   14.4    0.0    0.0       0.211   18.9       0  20:10    2700.00
  WW_SMG-007               0.162   20.1    0.0    0.0       0.202   25.1       0  14:32    2040.00
  WW_SMG-008               0.100   15.3    0.0    0.0       0.101   15.4       0  00:00    1800.00
  WW_SMG-009               0.505   22.1    0.0    0.0       0.567   24.8       0  20:22    2120.00
  WW_SMG-010               0.091   32.1    0.0    0.0       0.127   45.0       0  14:05    2040.00
  
  
  ***********************
  Outfall Loading Summary
  ***********************
  
  -----------------------------------------------------------
                         Flow       Avg       Max       Total
                         Freq      Flow      Flow      Volume
  Outfall Node           Pcnt       GPM       GPM    10^6 gal
  -----------------------------------------------------------
  OUTFALL-001            0.00      0.00      0.00       0.000
  -----------------------------------------------------------
  System                 0.00      0.00      0.00       0.000
  
  
  ********************
  Link Flow Summary
  ********************
  
  -----------------------------------------------------------------------------
                                 Maximum  Time of Max   Maximum    Max/    Max/
                                  |Flow|   Occurrence   |Veloc|    Full    Full
  Link                 Type          GPM  days hr:min    ft/sec    Flow   Depth
  -----------------------------------------------------------------------------
  9999                 CONDUIT      0.00     0  00:00      0.00    0.00    0.00
  CDT-13               CONDUIT     59.60     0  22:59      0.68    0.67    1.00
  CDT-15               CONDUIT    353.97     0  22:47      4.37    0.93    1.00
  CDT-19               CONDUIT     45.50     0  22:25      0.99    0.12    0.58
  CDT-21               CONDUIT    218.97     0  18:59      6.73    0.22    0.31
  CDT-23               CONDUIT    174.26     0  20:15      2.76    0.68    0.92
  CDT-25               CONDUIT     12.76     0  14:51      0.28    0.07    0.54
  CDT-27               CONDUIT     18.50     0  21:48      3.27    0.71    0.58
  CDT-29               CONDUIT    204.76     0  00:26      3.12    0.13    0.24
  CDT-31               CONDUIT    273.41     0  21:41      5.00    0.10    0.21
  CDT-33               CONDUIT    303.88     0  20:12      3.45    4.52    1.00
  CDT-35               CONDUIT     27.16     0  22:59      1.14    0.25    0.33
  CDT-37               CONDUIT    248.21     0  17:46      4.57    0.51    0.67
  CDT-39               CONDUIT      5.34     0  20:43      0.72    0.04    0.14
  CDT-41               CONDUIT    534.17     0  00:18      8.06    1.80    1.00
  CDT-43               CONDUIT     59.15     0  21:16      3.42    0.24    0.27
  CDT-45               CONDUIT     73.54     0  23:08      1.88    0.72    1.00
  CDT-47               CONDUIT    352.42     0  20:43      2.58    1.72    1.00
  CDT-51               CONDUIT      0.02     1  00:00      0.00    0.00    0.00
  CDT-53               CONDUIT      0.00     0  00:00      0.00    0.00    0.00
  CDT-55               CONDUIT    135.19     0  21:38      2.41    0.30    0.39
  CDT-57               CONDUIT      0.00     0  00:00      0.00    0.00    0.00
  CDT-59               CONDUIT      0.00     0  00:00      0.00    0.00    0.00
  MCPS-001FM           CONDUIT    352.30     0  20:43      4.00    0.78    1.00
  MOK-011FM            CONDUIT      0.00     0  00:00      0.00    0.00    0.29
  MOK-013FM            CONDUIT     57.55     0  14:11      8.30    3.96    0.70
  MOK-019NODE1-MOK-019NODE1A CONDUIT      0.00     0  00:00      0.00    0.00    0.10
  MOK-019NODE1A-MOK-019NODE2 CONDUIT      0.00     0  00:00      0.00    0.00    0.00
  MOK-021FM            CONDUIT    304.56     0  19:15      4.92    0.23    0.66
  MOK-022NODE2_PRV-006NODE1 CONDUIT    290.57     0  22:06      1.12    0.78    0.91
  PRV-001NODE1_JBR-001NODE1 CONDUIT    129.26     0  23:08      0.73    0.10    0.50
  PRV-003FM            CONDUIT     41.82     0  16:14      6.25    1.67    1.00
  PRV-004FM            CONDUIT      0.00     0  00:00      0.00    0.00    0.50
  PRV-005FM            CONDUIT      0.00     0  00:00      0.00    0.00    0.51
  PRV-006FM            CONDUIT      0.00     0  00:00      0.00    0.00    0.51
  PRV-006NODE1_PRV-001NODE1 CONDUIT    159.52     0  23:08      1.36    0.15    1.00
  PRV-007FM            CONDUIT     42.04     0  22:25      7.73    2.44    1.00
  SGM-1191             CONDUIT      1.45     0  11:30      0.76    0.00    0.04
  SGM-1200             CONDUIT      0.20     0  12:00      0.00    0.00    0.01
  SGM-1201             CONDUIT      4.64     0  11:36      2.02    0.00    0.04
  SGM-1208             CONDUIT      4.40     0  11:07      0.80    0.01    0.08
  SGM-1209             CONDUIT      4.41     0  11:12      0.76    0.01    0.08
  SGM-1210             CONDUIT      4.40     0  11:18      0.76    0.01    0.08
  SGM-1211             CONDUIT      4.40     0  11:25      0.76    0.01    0.08
  SGM-1212             CONDUIT      4.40     0  11:31      0.76    0.01    0.08
  SGM-1213             CONDUIT      4.40     0  11:41      0.76    0.01    0.08
  SGM-1214             CONDUIT      4.40     0  11:48      0.76    0.01    0.08
  SGM-1215             CONDUIT      4.40     0  11:58      0.76    0.01    0.08
  SGM-1224             CONDUIT      0.12     0  12:00      0.00    0.00    0.01
  SGM-1236             CONDUIT      4.65     0  11:03      1.31    0.01    0.06
  SGM-1237             CONDUIT      4.65     0  11:09      1.16    0.01    0.06
  SGM-1238             CONDUIT      4.65     0  11:15      1.16    0.01    0.06
  SGM-1239             CONDUIT      4.65     0  11:20      1.16    0.01    0.06
  SGM-1240             CONDUIT      4.65     0  11:25      1.16    0.01    0.06
  SGM-1241             CONDUIT      4.65     0  11:31      1.10    0.01    0.06
  SGM-1242             CONDUIT      4.64     0  11:35      1.39    0.01    0.05
  SGM-1273             CONDUIT     23.66     0  11:05      1.40    0.06    0.17
  SGM-1276             CONDUIT     23.61     0  11:00      1.41    0.06    0.17
  SGM-1277             CONDUIT     24.07     0  10:59      1.44    0.06    0.16
  SGM-1286             CONDUIT    228.73     0  19:16      3.80    0.57    0.42
  SGM-1287             CONDUIT     74.42     0  10:40      2.88    0.19    0.24
  SGM-1288             CONDUIT     40.72     0  10:43      2.14    0.10    0.20
  SGM-1289             CONDUIT     31.58     0  10:46      1.76    0.08    0.18
  SGM-1290             CONDUIT     28.60     0  10:48      1.73    0.07    0.17
  SGM-1291             CONDUIT     24.94     0  10:51      1.65    0.06    0.16
  SGM-1292             CONDUIT     22.04     0  10:54      1.43    0.05    0.16
  SGM-1293             CONDUIT     23.65     0  10:56      1.43    0.06    0.16
  SGM-1333             CONDUIT     25.37     0  11:07      1.46    0.06    0.17
  SGM-1334             CONDUIT     24.61     0  11:02      1.48    0.06    0.17
  SGM-1345             CONDUIT      4.39     0  12:14      0.82    0.01    0.07
  SGM-1347             CONDUIT      0.30     0  11:52      0.00    0.00    0.01
  SGM-1371             CONDUIT      4.39     0  12:09      0.71    0.01    0.08
  SGM-1372             CONDUIT      4.40     0  12:05      0.76    0.01    0.08
  SGM-1375             CONDUIT      0.28     0  12:00      0.30    0.00    0.02
  SGM-1376             CONDUIT      0.77     0  12:00      0.53    0.00    0.03
  SGM-1377             CONDUIT      1.10     0  12:00      0.60    0.00    0.04
  SGM-1378             CONDUIT      1.51     0  12:00      0.75    0.00    0.04
  SGM-1379             CONDUIT      1.51     0  12:00      0.39    0.00    0.06
  SGM-1399             CONDUIT      2.52     0  11:25      0.72    0.01    0.06
  SGM-1400             CONDUIT      2.52     0  11:18      0.74    0.01    0.06
  SGM-1401             CONDUIT      0.06     0  12:00      0.04    0.00    0.03
  SGM-1405             CONDUIT     27.91     0  11:58      1.49    0.07    0.18
  SGM-1406             CONDUIT     27.47     0  12:00      1.47    0.07    0.18
  SGM-1407             CONDUIT     27.23     0  12:01      1.47    0.07    0.18
  SGM-1408             CONDUIT     27.26     0  11:45      1.48    0.07    0.18
  SGM-1409             CONDUIT     26.74     0  11:47      1.46    0.07    0.17
  SGM-1410             CONDUIT     26.54     0  11:49      1.46    0.07    0.17
  SGM-1426             CONDUIT     26.33     0  11:50      1.46    0.07    0.17
  SGM-1427             CONDUIT     26.02     0  11:52      1.42    0.06    0.17
  SGM-1428             CONDUIT     27.63     0  11:54      1.45    0.07    0.47
  SGM-1447             CONDUIT    107.54     0  11:29      3.22    0.27    0.27
  SGM-1448             CONDUIT     36.68     0  11:49      1.97    0.09    0.18
  SGM-1449             CONDUIT     26.72     0  11:52      1.47    0.07    0.18
  SGM-1450             CONDUIT     29.26     0  11:54      1.53    0.07    0.18
  SGM-1451             CONDUIT     29.17     0  11:56      1.54    0.07    0.18
  SGM-1454             CONDUIT    693.50     0  00:07      5.37    1.14    1.00
  SGM-1455             CONDUIT    728.20     0  00:04      5.51    1.20    1.00
  SGM-1456             CONDUIT    794.30     0  00:02      6.48    1.31    1.00
  SGM-1457             CONDUIT   1055.43     0  00:01      8.01    1.74    1.00
  SGM-1461             CONDUIT     36.05     0  21:19      2.86    0.06    0.15
  SGM-1462             CONDUIT     26.46     0  21:21      2.40    0.04    0.14
  SGM-1463             CONDUIT     22.29     0  21:24      2.12    0.04    0.13
  SGM-1464             CONDUIT     19.69     0  21:26      1.96    0.03    0.12
  SGM-1484             CONDUIT      8.08     0  12:00      1.24    0.02    0.09
  SGM-1495             CONDUIT    233.34     0  00:34      1.74    0.58    1.00
  SGM-1496             CONDUIT    185.44     0  00:32      1.49    0.46    0.95
  SGM-1501             CONDUIT    682.46     0  00:08      4.54    1.13    1.00
  SGM-1502             CONDUIT     23.92     0  21:30      1.98    0.04    0.53
  SGM-1503             CONDUIT    675.31     0  00:09      4.85    1.11    1.00
  SGM-1504             CONDUIT    669.25     0  00:10      4.44    1.10    0.93
  SGM-1505             CONDUIT     17.86     0  21:28      1.56    0.03    0.13
  SGM-1506             CONDUIT    291.13     0  00:35      1.67    0.40    1.00
  SGM-1514             CONDUIT      5.94     0  20:48      1.11    0.01    0.08
  SGM-1515             CONDUIT      5.48     0  20:54      1.02    0.01    0.08
  SGM-1520             CONDUIT      5.34     0  20:58      0.98    0.01    0.08
  SGM-1533             CONDUIT      5.25     0  21:00      1.00    0.01    0.07
  SGM-1551             CONDUIT      0.24     0  12:00      0.00    0.00    0.01
  SGM-1552             CONDUIT      2.52     0  12:00      0.79    0.01    0.05
  SGM-1553             CONDUIT      1.05     0  11:34      0.58    0.00    0.04
  SGM-1885             CONDUIT      1.10     0  11:19      0.76    0.00    0.03
  SGM-1966             CONDUIT    818.60     0  00:00      5.23    1.98    1.00
  SGM-1967             CONDUIT     56.13     0  11:44      2.23    0.10    0.22
  SGM-4471             CONDUIT     58.38     0  11:50      2.27    0.11    0.22
  SGM-4495             CONDUIT      1.24     0  11:25      0.61    0.00    0.04
  SGM-4660             CONDUIT     13.65     0  11:44      2.06    0.02    0.09
  SGM-4793             CONDUIT      8.08     0  12:00      1.27    0.01    0.08
  SGM-4828             CONDUIT      2.76     0  11:14      0.91    0.01    0.05
  SM-609A_WW_MOK-004   CONDUIT     38.46     0  11:09      1.67    0.09    0.20
  SM-610-SM609A        CONDUIT     25.09     0  11:08      1.23    0.06    0.19
  SMG-003NODE1-SMG-003NODE2 CONDUIT    829.58     0  10:56      6.50    1.03    1.00
  SMG-009NODE1_WW_MOK-022 CONDUIT    143.56     0  21:08      1.67    0.59    0.57
  SMG-009NODE_SMG009NODE1 CONDUIT    574.19     0  20:50      4.48    0.83    0.88
  SMG-010FM            CONDUIT    159.36     0  14:06      4.07    1.70    1.00
  SMG-010NODE1-SMG-003NODE1 CONDUIT    344.63     0  10:57      3.03    0.70    1.00
  SPM-11               CONDUIT    402.31     0  14:50      7.53    0.59    0.59
  SPM-12               CONDUIT    457.58     0  20:15      3.75    1.33    0.86
  SPM-121              CONDUIT    740.86     0  02:08     12.54    0.35    1.00
  SPM-123              CONDUIT    264.00     0  04:54      7.40    1.69    1.00
  SPM-124              CONDUIT    993.01     0  08:48     12.88    3.12    1.00
  SPM-125              CONDUIT    461.00     0  14:51      6.62    0.74    1.00
  SPM-155              CONDUIT      0.00     0  00:00      0.00    0.00    0.51
  SPM-157              CONDUIT    441.79     0  21:40      1.25    0.26    1.00
  SPM-19               CONDUIT     49.91     0  20:25      8.65    2.23    0.69
  SPM-20               CONDUIT      0.01     0  14:10      0.05    0.00    0.22
  SPM-21               CONDUIT    204.79     0  00:26      3.43    0.33    0.41
  SPM-231              CONDUIT    132.63     0  15:07      1.51    0.58    0.55
  SPM-247              CONDUIT   2642.13     0  23:57      7.62    1.50    1.00
  SPM-273              CONDUIT    108.46     0  11:21      2.08    0.24    0.58
  SPM-274              CONDUIT    587.63     0  14:34      5.65    1.01    0.68
  SPM-333              CONDUIT    719.02     0  05:12      9.62    1.11    1.00
  SPM-334              CONDUIT    644.15     0  20:12      8.99    1.46    0.92
  SPM-335              CONDUIT    440.35     0  14:52      5.00    0.92    1.00
  SPM-336              CONDUIT     23.79     0  22:51      0.91    0.10    0.22
  SPM-337              CONDUIT      0.00     0  00:00      0.00    0.00    0.65
  SPM-339              CONDUIT      0.00     0  00:00      0.00    0.00    0.05
  SPM-340              CONDUIT      0.00     0  00:00      0.00    0.00    0.00
  SPM-342              CONDUIT      0.00     0  00:00      0.00    0.00    0.01
  SPM-343              CONDUIT      0.00     0  00:00      0.00    0.00    0.09
  SPM-344              CONDUIT      0.00     0  00:00      0.00    0.00    0.08
  SPM-345              CONDUIT      0.00     0  00:00      0.00    0.00    0.01
  SPM-354              CONDUIT    126.25     0  17:46      4.65    0.23    0.55
  SPM-355              CONDUIT      0.00     0  00:00      0.00    0.00    0.50
  SPM-356              CONDUIT    458.50     0  22:58      7.60    2.51    0.70
  SPM-357              CONDUIT    306.28     0  22:47      3.48   12.46    1.00
  SPM-358              CONDUIT    971.52     0  10:45     14.19    0.91    1.00
  SPM-359              CONDUIT    443.59     0  00:27      8.27    1.73    0.78
  SPM-360              CONDUIT    395.80     0  20:04      4.49    1.24    1.00
  SPM-361              CONDUIT    678.71     0  00:14      8.21    1.46    1.00
  SPM-45               CONDUIT    379.19     0  21:16      6.07    0.77    0.70
  SPM-46               CONDUIT    312.39     0  19:43      3.54    0.64    1.00
  SPM-47               CONDUIT    528.42     0  11:31      7.92    1.10    0.77
  SPM-48               CONDUIT    259.33     0  22:48      6.62    1.73    1.00
  SPM-49               CONDUIT      0.00     0  00:00      0.00    0.00    0.02
  SPM-515              CONDUIT   1929.66     0  23:57      6.46    1.92    0.91
  SPM-52               CONDUIT    105.16     0  21:48      4.54    1.34    0.60
  SPM-53               CONDUIT    355.80     0  14:48      9.93    2.62    1.00
  SPM-54               CONDUIT    181.41     0  20:43      3.41    0.59    0.59
  SPM-55               CONDUIT    203.27     0  16:15      5.21    1.24    1.00
  SPM-57               CONDUIT      0.00     0  00:00      0.00    0.00    0.03
  SPM-696              CONDUIT      0.00     0  00:00      0.00    0.00    0.01
  SPM-789              CONDUIT      0.00     0  00:00      0.00    0.00    0.51
  MCPS-001PUMP1        PUMP      1020.00     0  00:00              1.00
  MCPS-001PUMP2        PUMP      1020.00     0  00:00              1.00
  MOK-001PUMP1         PUMP       600.00     0  00:00              1.00
  MOK-001PUMP2         PUMP       600.00     0  00:00              1.00
  MOK-002PUMP1         PUMP      1590.00     0  00:00              1.00
  MOK-002PUMP2         PUMP       339.36     0  00:14              0.21
  MOK-003PUMP1         PUMP       620.00     0  00:00              1.00
  MOK-003PUMP2         PUMP       620.00     0  00:00              1.00
  MOK-004PUMP1         PUMP       820.00     0  00:00              1.00
  MOK-004PUMP2         PUMP       820.00     0  00:00              1.00
  MOK-005PUMP1         PUMP       600.00     0  00:00              1.00
  MOK-005PUMP2         PUMP       600.00     0  00:00              1.00
  MOK-006PUMP1         PUMP       800.00     0  00:00              1.00
  MOK-006PUMP2         PUMP       800.00     0  00:00              1.00
  MOK-007PUMP1         PUMP       800.00     0  00:00              1.00
  MOK-007PUMP2         PUMP         0.00     0  00:00              0.00
  MOK-008PUMP1         PUMP       600.00     0  00:00              1.00
  MOK-008PUMP2         PUMP       600.00     0  00:00              1.00
  MOK-009PUMP2         PUMP       650.00     0  00:00              1.00
  MOK-010PUMP1         PUMP       430.00     0  00:00              1.00
  MOK-010PUMP2         PUMP       430.00     0  00:00              1.00
  MOK-011PUMP1         PUMP       600.00     0  00:00              1.00
  MOK-011PUMP2         PUMP       600.00     0  00:00              1.00
  MOK-012PUMP1         PUMP       600.00     0  00:00              1.00
  MOK-012PUMP2         PUMP       600.00     0  00:00              1.00
  MOK-013PUMP1         PUMP        68.00     0  00:00              1.00
  MOK-013PUMP2         PUMP        68.00     0  00:00              1.00
  MOK-014PUMP1         PUMP        67.00     0  00:00              1.00
  MOK-014PUMP2         PUMP        67.00     0  00:00              1.00
  MOK-015PUMP1         PUMP        67.00     0  00:00              1.00
  MOK-015PUMP2         PUMP        67.00     0  00:00              1.00
  MOK-016PUMP1         PUMP        67.00     0  00:00              1.00
  MOK-016PUMP2         PUMP        67.00     0  00:00              1.00
  MOK-017PUMP1         PUMP        43.75     0  00:00              1.00
  MOK-017PUMP2         PUMP        43.75     0  00:00              1.00
  MOK-018PUMP1         PUMP       680.00     0  00:00              1.00
  MOK-018PUMP2         PUMP       680.00     0  00:00              1.00
  MOK-019PUMP1         PUMP        67.00     0  00:00              1.00
  MOK-019PUMP2         PUMP        67.00     0  00:00              1.00
  MOK-020PUMP1         PUMP       800.00     0  00:00              1.00
  MOK-020PUMP2         PUMP       800.00     0  00:00              1.00
  MOK-021PUMP1         PUMP       450.00     0  00:00              1.00
  MOK-021PUMP2         PUMP       450.00     0  00:00              1.00
  MOK-022PUMP1         PUMP      2250.00     0  00:00              1.00
  MOK-022PUMP2         PUMP      2250.00     0  00:00              1.00
  MOK-022PUMP3         PUMP      2400.00     0  00:00              1.00
  MOK009PUMP1          PUMP       650.00     0  00:00              1.00
  PRV-001PUMP1         PUMP        92.00     0  00:00              1.00
  PRV-001PUMP2         PUMP        92.00     0  00:00              1.00
  PRV-002PUMP1         PUMP        45.00     0  00:00              1.00
  PRV-002PUMP2         PUMP        45.00     0  00:00              1.00
  PRV-003PUMP1         PUMP        45.00     0  00:00              1.00
  PRV-004PUMP1         PUMP        45.00     0  00:00              1.00
  PRV-005PUMP1         PUMP        45.00     0  00:00              1.00
  PRV-005PUMP2         PUMP        45.00     0  00:00              1.00
  PRV-006PUMP1         PUMP        45.00     0  00:00              1.00
  PRV-006PUMP2         PUMP        45.00     0  00:00              1.00
  PRV-007PUMP1         PUMP        39.00     0  00:00              1.00
  PRV-007PUMP2         PUMP        39.00     0  00:00              1.00
  SMG-001PUMP1         PUMP       600.00     0  00:00              1.00
  SMG-001PUMP2         PUMP       600.00     0  00:00              1.00
  SMG-002PUMP1         PUMP       780.00     0  00:00              1.00
  SMG-002PUMP2         PUMP       780.00     0  00:00              1.00
  SMG-003PUMP1         PUMP      1300.00     0  00:00              1.00
  SMG-003PUMP2         PUMP      1300.00     0  00:00              1.00
  SMG-004PUMP1         PUMP       820.00     0  00:00              1.00
  SMG-004PUMP2         PUMP       820.00     0  00:00              1.00
  SMG-005PUMP1         PUMP       880.00     0  00:00              1.00
  SMG-005PUMP2         PUMP       880.00     0  00:00              1.00
  SMG-006PUMP1         PUMP      1350.00     0  00:00              1.00
  SMG-006PUMP2         PUMP      1350.00     0  00:00              1.00
  SMG-007PUMP1         PUMP      1020.00     0  00:00              1.00
  SMG-007PUMP2         PUMP      1020.00     0  00:00              1.00
  SMG-008PUMP1         PUMP       900.00     0  00:00              1.00
  SMG-008PUMP2         PUMP       900.00     0  00:00              1.00
  SMG-009PUMP1         PUMP      1060.00     0  00:00              1.00
  SMG-009PUMP2         PUMP      1060.00     0  00:00              1.00
  SMG-010PUMP1         PUMP      1020.00     0  00:00              1.00
  SMG-010PUMP2         PUMP      1020.00     0  00:00              1.00
  
  
  ***************************
  Flow Classification Summary
  ***************************
  
  -------------------------------------------------------------------------------------
                      Adjusted    ---------- Fraction of Time in Flow Class ---------- 
                       /Actual         Up    Down  Sub   Sup   Up    Down  Norm  Inlet 
  Conduit               Length    Dry  Dry   Dry   Crit  Crit  Crit  Crit  Ltd   Ctrl  
  -------------------------------------------------------------------------------------
  9999                    1.00   0.97  0.03  0.00  0.00  0.00  0.00  0.00  0.00  0.00
  CDT-13                  1.00   0.17  0.00  0.00  0.83  0.00  0.00  0.00  0.34  0.00
  CDT-15                  7.19   0.17  0.00  0.00  0.83  0.00  0.00  0.00  0.01  0.00
  CDT-19                  1.00   0.01  0.43  0.00  0.56  0.00  0.00  0.00  0.01  0.00
  CDT-21                  1.00   0.47  0.00  0.00  0.38  0.15  0.00  0.00  0.47  0.00
  CDT-23                  1.00   0.01  0.14  0.00  0.85  0.00  0.00  0.00  0.75  0.00
  CDT-25                  1.00   0.15  0.47  0.00  0.38  0.00  0.00  0.00  0.38  0.00
  CDT-27                  1.00   0.41  0.50  0.00  0.09  0.00  0.00  0.00  0.09  0.00
  CDT-29                  1.04   0.01  0.00  0.00  0.00  0.00  0.00  0.99  0.00  0.00
  CDT-31                  6.60   0.01  0.00  0.00  0.00  0.00  0.00  0.99  0.00  0.00
  CDT-33                  1.00   0.01  0.00  0.00  0.99  0.00  0.00  0.00  0.07  0.00
  CDT-35                  1.00   0.57  0.00  0.00  0.01  0.00  0.00  0.42  0.00  0.00
  CDT-37                  1.00   0.42  0.20  0.00  0.38  0.00  0.00  0.00  0.04  0.00
  CDT-39                  1.00   0.71  0.00  0.00  0.00  0.00  0.00  0.29  0.00  0.00
  CDT-41                  1.00   0.01  0.00  0.00  0.99  0.01  0.00  0.00  0.92  0.00
  CDT-43                  1.00   0.39  0.00  0.00  0.53  0.07  0.00  0.00  0.28  0.00
  CDT-45                  1.00   0.52  0.30  0.00  0.18  0.00  0.00  0.00  0.00  0.00
  CDT-47                  1.00   0.00  0.98  0.00  0.02  0.00  0.00  0.00  0.00  0.00
  CDT-51                  1.00   0.96  0.00  0.00  0.04  0.00  0.00  0.00  0.00  0.00
  CDT-53                  1.00   1.00  0.00  0.00  0.00  0.00  0.00  0.00  0.00  0.00
  CDT-55                  1.00   0.33  0.00  0.00  0.00  0.00  0.00  0.67  0.00  0.00
  CDT-57                  1.39   1.00  0.00  0.00  0.00  0.00  0.00  0.00  0.00  0.00
  CDT-59                  1.00   1.00  0.00  0.00  0.00  0.00  0.00  0.00  0.00  0.00
  MCPS-001FM              1.00   0.00  0.00  0.00  1.00  0.00  0.00  0.00  0.00  0.00
  MOK-011FM               1.00   0.00  0.36  0.00  0.64  0.00  0.00  0.00  0.64  0.00
  MOK-013FM               1.00   0.00  0.59  0.00  0.41  0.00  0.00  0.00  0.41  0.00
[...]
  SGM-4828                1.83   0.00  0.00  0.00  0.00  0.00  0.00  1.00  0.00  0.00
  SM-609A_WW_MOK-004      1.11   0.00  0.00  0.00  0.00  0.00  0.00  1.00  0.00  0.00
  SM-610-SM609A           4.18   0.00  0.00  0.00  1.00  0.00  0.00  0.00  1.00  0.00
  SMG-003NODE1-SMG-003NODE2    1.00   0.03  0.35  0.00  0.62  0.00  0.00  0.00  0.01  0.00
  SMG-009NODE1_WW_MOK-022    1.00   0.33  0.00  0.00  0.66  0.00  0.00  0.00  0.00  0.00
  SMG-009NODE_SMG009NODE1    1.00   0.00  0.33  0.00  0.65  0.01  0.00  0.00  0.04  0.00
  SMG-010FM               1.00   0.00  0.03  0.00  0.97  0.00  0.00  0.00  0.00  0.00
  SMG-010NODE1-SMG-003NODE1    1.00   0.03  0.00  0.00  0.96  0.01  0.00  0.00  0.17  0.00
  SPM-11                  1.00   0.00  0.62  0.00  0.38  0.00  0.00  0.00  0.38  0.00
  SPM-12                  1.00   0.01  0.14  0.00  0.85  0.00  0.00  0.00  0.02  0.00
  SPM-121                 2.17   0.00  0.01  0.00  0.99  0.00  0.00  0.00  0.03  0.00
  SPM-123                 1.00   0.00  0.03  0.00  0.97  0.00  0.00  0.00  0.03  0.00
  SPM-124                 1.00   0.00  0.03  0.00  0.97  0.00  0.00  0.00  0.22  0.00
  SPM-125                 1.00   0.00  0.42  0.00  0.58  0.00  0.00  0.00  0.10  0.00
  SPM-155                 1.00   0.00  0.01  0.00  0.99  0.00  0.00  0.00  0.00  0.00
  SPM-157                 1.00   0.00  0.01  0.00  0.99  0.00  0.00  0.00  0.00  0.00
  SPM-19                  1.00   0.00  0.00  0.00  0.98  0.02  0.00  0.00  0.62  0.00
  SPM-20                  1.00   0.00  0.00  0.00  1.00  0.00  0.00  0.00  0.41  0.00
  SPM-21                  1.00   0.01  0.00  0.00  0.00  0.00  0.00  0.99  0.00  0.00
  SPM-231                 1.00   0.15  0.00  0.00  0.00  0.00  0.00  0.85  0.00  0.00
  SPM-247                 1.00   0.00  0.00  0.00  0.97  0.03  0.00  0.00  0.45  0.00
  SPM-273                 1.00   0.38  0.06  0.00  0.56  0.00  0.00  0.00  0.55  0.00
  SPM-274                 1.00   0.38  0.09  0.00  0.52  0.01  0.00  0.00  0.01  0.00
  SPM-333                 1.00   0.01  0.00  0.00  0.98  0.01  0.00  0.00  0.14  0.00
  SPM-334                 1.00   0.01  0.14  0.00  0.73  0.12  0.00  0.00  0.07  0.00
  SPM-335                 1.00   0.00  0.01  0.00  0.99  0.00  0.00  0.00  0.02  0.00
  SPM-336                 1.00   0.47  0.00  0.00  0.00  0.00  0.00  0.53  0.00  0.00
  SPM-337                 3.40   0.00  0.47  0.00  0.53  0.00  0.00  0.00  0.53  0.00
  SPM-339                 1.00   0.36  0.64  0.00  0.00  0.00  0.00  0.00  0.00  0.00
  SPM-340                 1.00   1.00  0.00  0.00  0.00  0.00  0.00  0.00  0.00  0.00
  SPM-342                 1.00   0.00  1.00  0.00  0.00  0.00  0.00  0.00  0.00  0.00
  SPM-343                 1.00   0.00  0.91  0.00  0.09  0.00  0.00  0.00  0.00  0.00
  SPM-344                 1.00   0.91  0.09  0.00  0.00  0.00  0.00  0.00  0.00  0.00
  SPM-345                 1.00   0.00  1.00  0.00  0.00  0.00  0.00  0.00  0.00  0.00
  SPM-354                 1.00   0.57  0.05  0.00  0.38  0.00  0.00  0.00  0.38  0.00
  SPM-355                 1.00   0.57  0.43  0.00  0.00  0.00  0.00  0.00  0.00  0.00
  SPM-356                 1.00   0.17  0.40  0.00  0.43  0.00  0.00  0.00  0.00  0.00
  SPM-357                 2.32   0.17  0.00  0.00  0.83  0.00  0.00  0.00  0.00  0.00
  SPM-358                 1.00   0.00  0.17  0.00  0.83  0.00  0.00  0.00  0.27  0.00
  SPM-359                 1.00   0.01  0.01  0.00  0.97  0.02  0.00  0.00  0.00  0.00
  SPM-360                 1.00   0.00  0.01  0.00  0.99  0.00  0.00  0.00  0.00  0.00
  SPM-361                 1.00   0.00  0.01  0.00  0.92  0.07  0.00  0.00  0.88  0.00
  SPM-45                  1.00   0.00  0.39  0.00  0.60  0.01  0.00  0.00  0.60  0.00
  SPM-46                  1.00   0.00  0.01  0.00  0.99  0.00  0.00  0.00  0.00  0.00
  SPM-47                  1.00   0.01  0.00  0.00  0.93  0.06  0.00  0.00  0.15  0.00
  SPM-48                  1.00   0.00  0.17  0.00  0.83  0.00  0.00  0.00  0.00  0.00
  SPM-49                  1.00   0.00  1.00  0.00  0.00  0.00  0.00  0.00  0.00  0.00
  SPM-515                 1.00   0.00  0.49  0.00  0.47  0.04  0.00  0.00  0.04  0.00
  SPM-52                  1.00   0.41  0.18  0.00  0.41  0.00  0.00  0.00  0.32  0.00
  SPM-53                  1.00   0.00  0.41  0.00  0.59  0.00  0.00  0.00  0.21  0.00
  SPM-54                  1.00   0.00  0.71  0.00  0.29  0.00  0.00  0.00  0.29  0.00
  SPM-55                  1.00   0.00  0.97  0.00  0.00  0.00  0.03  0.00  0.00  0.00
  SPM-57                  1.00   0.00  0.00  0.00  1.00  0.00  0.00  0.00  1.00  0.00
  SPM-696                 1.00   0.00  1.00  0.00  0.00  0.00  0.00  0.00  0.00  0.00
  SPM-789                 1.00   0.00  0.82  0.00  0.18  0.00  0.00  0.00  0.00  0.00
  
  
  *************************
  Conduit Surcharge Summary
  *************************
  
  ----------------------------------------------------------------------------
                                                           Hours        Hours 
                         --------- Hours Full --------   Above Full   Capacity
  Conduit                Both Ends  Upstream  Dnstream   Normal Flow   Limited
  ----------------------------------------------------------------------------
  CDT-13                      0.18      0.18     11.24      0.01         0.01
  CDT-15                      0.18      0.18      1.20      0.01         0.01
  CDT-19                      0.01      0.01     13.49      0.01         0.01
  CDT-23                      0.01      0.01     20.43      0.01         0.01
  CDT-27                      0.01      0.01      2.21      0.01         0.01
  CDT-33                     18.52     18.52     20.40      3.18         3.18
  CDT-37                      0.01      0.01      9.13      0.01         0.01
  CDT-41                      0.39      0.46     23.69      0.45         0.39
  CDT-45                      4.09      4.09      4.35      0.01         0.01
  CDT-47                      0.01      0.01     24.00      0.05         0.01
  MCPS-001FM                 11.54     24.00     11.54      0.01         0.01
  MOK-013FM                   0.01      0.01      9.83      0.03         0.01
  MOK-021FM                   0.01      0.01     16.77      0.01         0.01
  MOK-022NODE2_PRV-006NODE1        0.01      0.01      0.88      0.01         0.01
  PRV-001NODE1_JBR-001NODE1        0.01      0.01      0.86      0.01         0.01
  PRV-003FM                   5.42      5.48     17.55      0.37         0.01
  PRV-004FM                   0.01      9.90      0.01      0.01         0.01
  PRV-005FM                   0.01     11.64      0.01      0.01         0.01
  PRV-006FM                   0.01      7.44      0.01      0.01         0.01
  PRV-006NODE1_PRV-001NODE1        0.88      0.88      4.37      0.01         0.01
  PRV-007FM                  19.00     20.92     21.55      4.18        13.85
  SGM-1454                    0.27      0.35      0.27      0.36         0.27
  SGM-1455                    0.33      0.36      0.35      0.37         0.33
  SGM-1456                    0.35      0.38      0.36      0.38         0.35
  SGM-1457                    0.38      0.40      0.38      0.39         0.38
  SGM-1495                    0.17      0.17      0.26      0.01         0.01
  SGM-1496                    0.01      0.01      0.17      0.01         0.01
  SGM-1501                    0.25      0.27      0.25      0.35         0.25
  SGM-1502                    0.01      0.01      0.27      0.01         0.01
  SGM-1503                    0.22      0.25      0.23      0.35         0.22
  SGM-1504                    0.01      0.23      0.01      0.35         0.01
  SGM-1506                    0.24      0.24      0.33      0.01         0.01
  SGM-1966                   24.00     24.00     24.00      0.01         0.01
  SMG-003NODE1-SMG-003NODE2       12.64     12.64     14.89      0.01         0.01
  SMG-009NODE_SMG009NODE1        0.01      0.01      8.28      0.01         0.01
  SMG-010FM                   9.90     21.16      9.90      0.01         9.83
  SMG-010NODE1-SMG-003NODE1       14.90     14.90     19.08      0.01         0.04
  SPM-11                      0.01      0.01      0.02      0.01         0.01
  SPM-12                      0.01      0.01     20.06      1.25         0.01
  SPM-121                    21.48     21.48     23.82      0.01         0.01
  SPM-123                    17.86     21.16     17.87      0.50        16.36
  SPM-124                    15.20     15.20     22.80      0.35        14.47
  SPM-125                     9.13      9.13     11.66      0.01         0.01
  SPM-155                     0.01     13.59      0.01      0.01         0.01
  SPM-157                    13.85     19.88     13.85      0.01        12.50
  SPM-19                      0.01      0.02      0.01      0.02         0.01
  SPM-247                     1.92      1.92     12.34      0.60         0.92
  SPM-273                     0.01      0.01     13.05      0.01         0.01
  SPM-274                     0.01      0.01     12.64      0.01         0.01
  SPM-333                    18.52     18.52     23.67      0.05         0.01
  SPM-334                     0.01      0.01     20.40      0.04         0.01
  SPM-335                     3.85     20.40      3.85      0.01         0.01
  SPM-337                     0.01      0.01     12.65      0.01         0.01
  SPM-354                     0.01      0.01      0.76      0.01         0.01
  SPM-356                     0.01      0.01     10.28      0.04         0.01
  SPM-357                     1.20      1.20      1.20      0.09         0.01
  SPM-358                    11.24     11.24     13.26      0.01         0.01
  SPM-359                     0.01      0.01     23.69      0.39         0.01
  SPM-360                     3.94     23.69      3.95      0.04         3.90
  SPM-361                     0.45      0.46     21.95      0.56         0.01
  SPM-45                      0.01      0.01     14.58      0.01         0.01
  SPM-46                     15.41     23.37     15.41      0.01        13.19
  SPM-47                      0.01      0.01     23.37      0.02         0.01
  SPM-48                      1.20      3.54      1.20      0.01         1.19
  SPM-515                     0.01      0.01     12.34      1.26         0.01
  SPM-52                      0.01      0.01      2.21      0.01         0.01
  SPM-53                      2.21      2.21     14.13      0.02         2.19
  SPM-54                      0.01      0.01      6.99      0.01         0.01
  SPM-55                      0.56      0.56     22.49      0.62         0.01
  SPM-789                     0.01      4.09      0.01      0.01         0.01
  
  
  ***************
  Pumping Summary
  ***************
  
  ---------------------------------------------------------------------------------------------------------
                                                  Min       Avg       Max     Total     Power    % Time Off
                        Percent   Number of      Flow      Flow      Flow    Volume     Usage    Pump Curve
  Pump                 Utilized   Start-Ups       GPM       GPM       GPM  10^6 gal     Kw-hr    Low   High
  ---------------------------------------------------------------------------------------------------------
  MCPS-001PUMP1            0.23           3      0.00    413.78   1020.00     0.001      0.27    0.0   10.1
  MCPS-001PUMP2            0.00           1      0.00   1020.00   1020.00     0.000      0.00    0.0  100.0
  MOK-001PUMP1             0.06           2      0.00    332.38    600.00     0.000      0.02    0.0   30.0
  MOK-001PUMP2             0.00           1      0.00    600.00    600.00     0.000      0.00    0.0  100.0
  MOK-002PUMP1             8.80          47      0.00    380.72   1590.00     0.049     21.92    0.0    1.8
  MOK-002PUMP2             2.16           1      0.00    229.36    339.36     0.007      3.60    0.0    4.0
  MOK-003PUMP1             2.63          53      0.00    202.47    620.00     0.008      1.05    0.0    0.9
  MOK-003PUMP2             0.00           1      0.00    620.00    620.00     0.000      0.00    0.0  100.0
  MOK-004PUMP1             3.71          71      0.00    456.36    820.00     0.024      3.27    0.0   13.9
  MOK-004PUMP2             0.00           1      0.00    820.00    820.00     0.000      0.00    0.0  100.0
  MOK-005PUMP1             0.80          17      0.00    339.73    600.00     0.004      0.41    0.0    7.2
  MOK-005PUMP2             0.00           1      0.00    600.00    600.00     0.000      0.00    0.0  100.0
  MOK-006PUMP1             0.98          19      0.00    308.85    800.00     0.004      0.74    0.0    5.9
  MOK-006PUMP2             0.00           1      0.00    800.00    800.00     0.000      0.00    0.0  100.0
  MOK-007PUMP1             0.25           4      0.00    494.30    800.00     0.002      0.18    0.0   25.6
  MOK-007PUMP2             0.00           0      0.00      0.00      0.00     0.000      0.00    0.0    0.0
  MOK-008PUMP1             0.46           8      0.00    317.49    600.00     0.002      0.21    0.0    8.9
  MOK-008PUMP2             0.00           1      0.00    600.00    600.00     0.000      0.00    0.0  100.0
  MOK-009PUMP2             0.15           7      0.00    279.23    650.00     0.001      0.05    0.0    0.0
  MOK-010PUMP1             0.00           1      0.00    430.00    430.00     0.000      0.00    0.0  100.0
  MOK-010PUMP2             0.00           1      0.00    430.00    430.00     0.000      0.00    0.0  100.0
  MOK-011PUMP1             0.14           6      0.00    600.00    600.00     0.001      0.01    0.0  100.0
  MOK-011PUMP2             0.00           1      0.00    600.00    600.00     0.000      0.00    0.0  100.0
  MOK-012PUMP1             0.11           4      0.00    245.19    600.00     0.000      0.03    0.0    5.4
  MOK-012PUMP2             0.00           1      0.00    600.00    600.00     0.000      0.00    0.0  100.0
  MOK-013PUMP1             0.13           2      0.00     53.42     68.00     0.000      0.01    0.0   12.4
  MOK-013PUMP2             0.00           1      0.00     68.00     68.00     0.000      0.00    0.0  100.0
  MOK-014PUMP1             0.00           1      0.00     67.00     67.00     0.000      0.00    0.0  100.0
  MOK-014PUMP2             0.00           1      0.00     67.00     67.00     0.000      0.00    0.0  100.0
  MOK-015PUMP1             0.00           1      0.00     67.00     67.00     0.000      0.00    0.0  100.0
  MOK-015PUMP2             0.00           1      0.00     67.00     67.00     0.000      0.00    0.0  100.0
  MOK-016PUMP1             0.23           5      0.00     61.86     67.00     0.000      0.01    0.0   72.5
  MOK-016PUMP2             0.00           1      0.00     67.00     67.00     0.000      0.00    0.0  100.0
  MOK-017PUMP1             0.00           1      0.00     43.75     43.75     0.000      0.00    0.0  100.0
  MOK-017PUMP2             0.00           1      0.00     43.75     43.75     0.000      0.00    0.0  100.0
  MOK-018PUMP1             0.00           1      0.00    680.00    680.00     0.000      0.00    0.0  100.0
  MOK-018PUMP2             0.00           1      0.00    680.00    680.00     0.000      0.00    0.0  100.0
  MOK-019PUMP1             0.00           1      0.00     67.00     67.00     0.000      0.00    0.0  100.0
  MOK-019PUMP2             0.00           1      0.00     67.00     67.00     0.000      0.00    0.0  100.0
  MOK-020PUMP1             0.49          10      0.00    313.78    800.00     0.002      0.12    0.0   23.6
  MOK-020PUMP2             0.00           1      0.00    800.00    800.00     0.000      0.00    0.0  100.0
  MOK-021PUMP1             0.52           7      0.00    302.37    450.00     0.002      0.15    0.0    3.1
  MOK-021PUMP2             0.00           1      0.00    450.00    450.00     0.000      0.00    0.0  100.0
  MOK-022PUMP1             6.54          79      0.00   1797.72   2250.00     0.169     61.88    0.0   24.2
  MOK-022PUMP2             0.00           1      0.00   2250.00   2250.00     0.000      0.00    0.0  100.0
  MOK-022PUMP3             0.00           1      0.00   2400.00   2400.00     0.000      0.00    0.0  100.0
  MOK009PUMP1              0.15           7      0.00    279.23    650.00     0.001      0.05    0.0    0.0
  PRV-001PUMP1             0.00           1      0.00     92.00     92.00     0.000      0.00    0.0  100.0
  PRV-001PUMP2             0.00           1      0.00     92.00     92.00     0.000      0.00    0.0  100.0
  PRV-002PUMP1             0.00           1      0.00     45.00     45.00     0.000      0.00    0.0  100.0
  PRV-002PUMP2             0.00           1      0.00     45.00     45.00     0.000      0.00    0.0  100.0
  PRV-003PUMP1             1.55          10      0.00     40.17     45.00     0.001      0.03    0.0    1.5
  PRV-004PUMP1             0.00           1      0.00     45.00     45.00     0.000      0.00    0.0  100.0
  PRV-005PUMP1             0.00           1      0.00     45.00     45.00     0.000      0.00    0.0  100.0
  PRV-005PUMP2             0.00           1      0.00     45.00     45.00     0.000      0.00    0.0  100.0
  PRV-006PUMP1             0.00           1      0.00     45.00     45.00     0.000      0.00    0.0  100.0
  PRV-006PUMP2             0.00           1      0.00     45.00     45.00     0.000      0.00    0.0  100.0
  PRV-007PUMP1            17.34         156      0.00     39.00     39.00     0.010      0.32    0.0  100.0
  PRV-007PUMP2             0.00           1      0.00     39.00     39.00     0.000      0.00    0.0  100.0
  SMG-001PUMP1             0.84          13      0.00    600.00    600.00     0.007      0.08    0.0  100.0
  SMG-001PUMP2             0.00           1      0.00    600.00    600.00     0.000      0.00    0.0  100.0
  SMG-002PUMP1             7.20         143      0.00    516.72    780.00     0.054      7.64    0.0    0.2
  SMG-002PUMP2             0.00           1      0.00    780.00    780.00     0.000      0.00    0.0  100.0
  SMG-003PUMP1             1.41          43      0.00    638.99   1300.00     0.013      2.87    0.0    1.1
  SMG-003PUMP2             0.00           1      0.00   1300.00   1300.00     0.000      0.00    0.0  100.0
  SMG-004PUMP1             2.22          20      0.00    198.72    820.00     0.006      1.37    0.0    0.7
  SMG-004PUMP2             0.00           1      0.00    820.00    820.00     0.000      0.00    0.0  100.0
  SMG-005PUMP1             0.08           2      0.00    534.52    880.00     0.001      0.04    0.0   28.6
  SMG-005PUMP2             0.00           1      0.00    880.00    880.00     0.000      0.00    0.0  100.0
  SMG-006PUMP1             0.27           4      0.00    573.59   1350.00     0.002      0.35    0.0   17.4
  SMG-006PUMP2             0.00           1      0.00   1350.00   1350.00     0.000      0.00    0.0  100.0
  SMG-007PUMP1            12.55          81      0.00    313.13   1020.00     0.055     12.38    0.0    0.2
  SMG-007PUMP2             0.00           1      0.00   1020.00   1020.00     0.000      0.00    0.0  100.0
  SMG-008PUMP1             0.00           1      0.00    900.00    900.00     0.000      0.00    0.0  100.0
  SMG-008PUMP2             0.00           1      0.00    900.00    900.00     0.000      0.00    0.0  100.0
  SMG-009PUMP1            14.48         102      0.00    546.04   1060.00     0.114     23.80    0.0    1.9
  SMG-009PUMP2             0.00           1      0.00   1060.00   1060.00     0.000      0.00    0.0  100.0
  SMG-010PUMP1             0.05           2      0.00    670.44   1020.00     0.000      0.02    0.0   55.6
  SMG-010PUMP2             0.00           1      0.00   1020.00   1020.00     0.000      0.00    0.0  100.0
  

  Analysis begun on:  Fri Mar  6 12:48:50 2026
  Analysis ended on:  Fri Mar  6 12:48:52 2026
  Total elapsed time: 00:00:02