
  EPA STORM WATER MANAGEMENT MODEL - VERSION 5.2 (Build 5.2.4)
  ------------------------------------------------------------

  
  ERROR 209: undefined object * at line 51 of [SUBCATCHMENT] section:
  Sub-01           *                *                295652343.81 25.00    500.00   1.1828   0                        

  
  ERROR 209: undefined object * at line 53 of [SUBCATCHMENT] section:
  S224.1           *                *                46235611.77 25.00    500.00   0.1728   0                        

  
  ERROR 209: undefined object * at line 55 of [SUBCATCHMENT] section:
  S227             *                *                6445112.35 25.00    500.00   0.4093   0                        

  
  ERROR 209: undefined object * at line 57 of [SUBCATCHMENT] section:
  S156             *                *                2758576.32 25.00    500.00   0.2980   0                        

  
  ERROR 209: undefined object * at line 59 of [SUBCATCHMENT] section:
  S18              *                *                5126625.38 25.00    500.00   0.2932   0                        

  
  ERROR 209: undefined object * at line 61 of [SUBCATCHMENT] section:
  S144             *                *                2171284.89 25.00    500.00   0.1799   0                        

  
  ERROR 209: undefined object * at line 63 of [SUBCATCHMENT] section:
  S229             *                *                648604.36 25.00    500.00   0.5898   0                        

  
  ERROR 209: undefined object * at line 65 of [SUBCATCHMENT] section:
  S210             *                *                3621744.96 25.00    500.00   0.7206   0                        

  
  ERROR 209: undefined object * at line 67 of [SUBCATCHMENT] section:
  S176             *                *                2171996.65 25.00    500.00   0.8127   0                        

  
  ERROR 209: undefined object * at line 69 of [SUBCATCHMENT] section:
  S236             *                *                542524.8 25.00    500.00   0.6299   0                        

  
  ERROR 209: undefined object * at line 71 of [SUBCATCHMENT] section:
  S237             *                *                1633686.31 25.00    500.00   0.5447   0                        

  
  ERROR 209: undefined object * at line 73 of [SUBCATCHMENT] section:
  S232             *                *                245636.37 25.00    500.00   1.3807   0                        

  
  ERROR 209: undefined object * at line 75 of [SUBCATCHMENT] section:
  Sub-02           *                *                2339959.81 25.00    500.00   0.5544   0                        

  
  ERROR 209: undefined object * at line 77 of [SUBCATCHMENT] section:
  S138             *                *                5709115.25 25.00    500.00   0.4359   0                        

  
  ERROR 209: undefined object * at line 79 of [SUBCATCHMENT] section:
  S36              *                *                14714529.97 25.00    500.00   0.1618   0                        

  
  ERROR 209: undefined object * at line 81 of [SUBCATCHMENT] section:
  S151             *                *                5032347.23 25.00    500.00   0.1715   0                        

  
  ERROR 209: undefined object * at line 83 of [SUBCATCHMENT] section:
  S51              *                *                4551844.44 25.00    500.00   0.2247   0                        

  
  ERROR 209: undefined object * at line 85 of [SUBCATCHMENT] section:
  S199             *                *                3946957.17 25.00    500.00   0.4860   0                        

  
  ERROR 209: undefined object * at line 87 of [SUBCATCHMENT] section:
  S95              *                *                855779.73 25.00    500.00   0.3350   0                        

  
  ERROR 209: undefined object * at line 89 of [SUBCATCHMENT] section:
  Spruce           *                *                1376005.92 25.00    500.00   3.2082   0                        

  
  ERROR 209: undefined object * at line 91 of [SUBCATCHMENT] section:
  S167             *                *                2098689.46 25.00    500.00   0.2327   0                        

  
  ERROR 209: undefined object * at line 93 of [SUBCATCHMENT] section:
  S76              *                *                1441460.01 25.00    500.00   0.4620   0                        

  
  ERROR 209: undefined object * at line 95 of [SUBCATCHMENT] section:
  S147             *                *                1622068.89 25.00    500.00   0.1828   0                        

  
  ERROR 209: undefined object * at line 97 of [SUBCATCHMENT] section:
  S134             *                *                1588404.16 25.00    500.00   0.1937   0                        

  
  ERROR 209: undefined object * at line 99 of [SUBCATCHMENT] section:
  S131             *                *                2111672.37 25.00    500.00   0.1819   0                        

  
  ERROR 209: undefined object * at line 101 of [SUBCATCHMENT] section:
  S106             *                *                130939.65 25.00    500.00   0.5820   0                        

  
  ERROR 209: undefined object * at line 103 of [SUBCATCHMENT] section:
  S110             *                *                219305.49 25.00    500.00   1.2125   0                        

  
  ERROR 209: undefined object * at line 105 of [SUBCATCHMENT] section:
  S156.1           *                *                1255348.19 25.00    500.00   0.4690   0                        

  
  ERROR 209: undefined object * at line 107 of [SUBCATCHMENT] section:
  S181             *                *                1087612.75 25.00    500.00   0.3547   0                        

  
  ERROR 209: undefined object * at line 109 of [SUBCATCHMENT] section:
  S55              *                *                3787222.33 25.00    500.00   0.6072   0                        

  
  ERROR 209: undefined object * at line 111 of [SUBCATCHMENT] section:
  S3.1             *                *                718851.03 25.00    500.00   0.4073   0                        

  
  ERROR 209: undefined object * at line 113 of [SUBCATCHMENT] section:
  S253             *                *                830756.29 25.00    500.00   0.2155   0                        

  
  ERROR 209: undefined object * at line 115 of [SUBCATCHMENT] section:
  S69              *                *                2006076.44 25.00    500.00   0.3229   0                        

  
  ERROR 209: undefined object * at line 117 of [SUBCATCHMENT] section:
  S224.2           *                *                2902270.98 25.00    500.00   0.1240   0                        

  
  ERROR 209: undefined object * at line 119 of [SUBCATCHMENT] section:
  S68              *                *                11356810.21 25.00    500.00   0.1458   0                        

  
  ERROR 209: undefined object * at line 121 of [SUBCATCHMENT] section:
  S224.3           *                *                12892986.3 25.00    500.00   0.1559   0                        

  
  ERROR 209: undefined object * at line 123 of [SUBCATCHMENT] section:
  S136.1           *                *                376393.91 25.00    500.00   0.2967   0                        

  
  ERROR 209: undefined object * at line 125 of [SUBCATCHMENT] section:
  S136.2           *                *                252539.29 25.00    500.00   0.5027   0                        

  
  ERROR 209: undefined object * at line 127 of [SUBCATCHMENT] section:
  S25              *                *                282935.32 25.00    500.00   0.6228   0                        

  
  ERROR 209: undefined object * at line 129 of [SUBCATCHMENT] section:
  S2               *                *                353004.39 25.00    500.00   0.9855   0                        

  
  ERROR 209: undefined object * at line 131 of [SUBCATCHMENT] section:
  S22              *                *                736715.2 25.00    500.00   0.6685   0                        

  
  ERROR 209: undefined object * at line 133 of [SUBCATCHMENT] section:
  Moose            *                *                5570766.9 25.00    500.00   0.5980   0                        

  
  ERROR 209: undefined object * at line 135 of [SUBCATCHMENT] section:
  S240             *                *                306781   25.00    500.00   0.5669   0                        

  
  ERROR 209: undefined object * at line 137 of [SUBCATCHMENT] section:
  S233             *                *                162535.43 25.00    500.00   0.9118   0                        

  
  ERROR 209: undefined object * at line 139 of [SUBCATCHMENT] section:
  S239             *                *                242490.58 25.00    500.00   0.6097   0                        

  
  ERROR 209: undefined object * at line 141 of [SUBCATCHMENT] section:
  S241             *                *                198584.79 25.00    500.00   0.5235   0                        

  
  ERROR 209: undefined object * at line 143 of [SUBCATCHMENT] section:
  S242             *                *                80095.48 25.00    500.00   1.7411   0                        

  
  ERROR 209: undefined object * at line 145 of [SUBCATCHMENT] section:
  S197             *                *                188516.87 25.00    500.00   0.6889   0                        

  
  ERROR 209: undefined object * at line 147 of [SUBCATCHMENT] section:
  S187             *                *                169668.43 25.00    500.00   0.6757   0                        

  
  ERROR 209: undefined object * at line 149 of [SUBCATCHMENT] section:
  S192             *                *                237088.02 25.00    500.00   0.2859   0                        

  
  ERROR 209: undefined object * at line 151 of [SUBCATCHMENT] section:
  S164             *                *                150948.7 25.00    500.00   1.4924   0                        

  
  ERROR 209: undefined object * at line 153 of [SUBCATCHMENT] section:
  S194             *                *                122297.48 25.00    500.00   0.2906   0                        

  
  ERROR 209: undefined object * at line 155 of [SUBCATCHMENT] section:
  S234             *                *                57293.47 25.00    500.00   2.4143   0                        

  
  ERROR 209: undefined object * at line 157 of [SUBCATCHMENT] section:
  S161             *                *                243834.6 25.00    500.00   0.5818   0                        

  
  ERROR 209: undefined object * at line 159 of [SUBCATCHMENT] section:
  S160             *                *                87091.92 25.00    500.00   1.2119   0                        

  
  ERROR 209: undefined object * at line 161 of [SUBCATCHMENT] section:
  S157             *                *                210743.27 25.00    500.00   1.0838   0                        

  
  ERROR 209: undefined object * at line 163 of [SUBCATCHMENT] section:
  S152             *                *                136096.18 25.00    500.00   0.6605   0                        

  
  ERROR 209: undefined object * at line 165 of [SUBCATCHMENT] section:
  S155             *                *                87615.28 25.00    500.00   1.1449   0                        

  
  ERROR 209: undefined object * at line 167 of [SUBCATCHMENT] section:
  S212             *                *                1219670.94 25.00    500.00   0.8397   0                        

  
  ERROR 209: undefined object * at line 169 of [SUBCATCHMENT] section:
  Sub-03           *                *                464477.12 25.00    500.00   0.5316   0                        

  
  ERROR 209: undefined object * at line 171 of [SUBCATCHMENT] section:
  S185             *                *                340426.97 25.00    500.00   0.6013   0                        

  
  ERROR 209: undefined object * at line 173 of [SUBCATCHMENT] section:
  S237.1           *                *                4415096.6 25.00    500.00   0.5101   0                        

  
  ERROR 209: undefined object * at line 175 of [SUBCATCHMENT] section:
  Pond             *                *                1192306.28 25.00    500.00   4.0442   0                        

  
  ERROR 209: undefined object * at line 177 of [SUBCATCHMENT] section:
  S40              *                *                1429254.36 25.00    500.00   0.4782   0                        

  
  ERROR 209: undefined object * at line 179 of [SUBCATCHMENT] section:
  S5               *                *                1418315.58 25.00    500.00   0.3627   0                        

  
  ERROR 209: undefined object * at line 181 of [SUBCATCHMENT] section:
  S54              *                *                1726491.88 25.00    500.00   0.4216   0                        

  
  ERROR 209: undefined object * at line 183 of [SUBCATCHMENT] section:
  S52              *                *                223034.22 25.00    500.00   1.3060   0                        

  
  ERROR 209: undefined object * at line 185 of [SUBCATCHMENT] section:
  S60              *                *                1536554.86 25.00    500.00   1.9302   0                        

  
  ERROR 209: undefined object * at line 187 of [SUBCATCHMENT] section:
  S228             *                *                172688.74 25.00    500.00   2.4473   0                        

  
  ERROR 209: undefined object * at line 189 of [SUBCATCHMENT] section:
  S94.3            *                *                1084950.5 25.00    500.00   0.6169   0                        

  
  ERROR 209: undefined object * at line 191 of [SUBCATCHMENT] section:
  S65              *                *                504541.85 25.00    500.00   0.5588   0                        

  
  ERROR 209: undefined object * at line 193 of [SUBCATCHMENT] section:
  S149             *                *                1960724.49 25.00    500.00   0.2559   0                        

  
  ERROR 209: undefined object * at line 195 of [SUBCATCHMENT] section:
  S226             *                *                1353443.72 25.00    500.00   1.3698   0                        

  
  ERROR 209: undefined object * at line 197 of [SUBCATCHMENT] section:
  S94.1            *                *                76223.54 25.00    500.00   1.4202   0                        

  
  ERROR 209: undefined object * at line 199 of [SUBCATCHMENT] section:
  S44              *                *                658912.27 25.00    500.00   1.1089   0                        

  
  ERROR 209: undefined object * at line 201 of [SUBCATCHMENT] section:
  Sub-04           *                *                3762222.45 25.00    500.00   1.0128   0                        

  
  ERROR 209: undefined object * at line 203 of [SUBCATCHMENT] section:
  S173             *                *                2474810.22 25.00    500.00   0.3336   0                        

  
  ERROR 209: undefined object * at line 205 of [SUBCATCHMENT] section:
  S38              *                *                1196095.51 25.00    500.00   0.2998   0                        

  
  ERROR 209: undefined object * at line 207 of [SUBCATCHMENT] section:
  S9               *                *                991970.31 25.00    500.00   0.4549   0                        

  
  ERROR 209: undefined object * at line 209 of [SUBCATCHMENT] section:
  S188             *                *                91593.04 25.00    500.00   0.3424   0                        

  
  ERROR 209: undefined object * at line 211 of [SUBCATCHMENT] section:
  S235             *                *                97494.73 25.00    500.00   0.6936   0                        

  
  ERROR 209: undefined object * at line 213 of [SUBCATCHMENT] section:
  S238             *                *                107203.07 25.00    500.00   0.5980   0                        


  Analysis begun on:  Fri Mar  6 12:55:22 2026
  Analysis ended on:  Fri Mar  6 12:55:22 2026
  Total elapsed time: < 1 sec