
  EPA STORM WATER MANAGEMENT MODEL - VERSION 5.2 (Build 5.2.4)
  ------------------------------------------------------------

  
  ERROR 209: undefined object NLZ0001_TS at line 2842 of [OUTFALL] section:
  NLZ0001          -5.5       TIMESERIES NLZ0001_TS       NO                       

  
  ERROR 209: undefined object NLP0010_TS at line 2843 of [OUTFALL] section:
  NLP0010          -2.37      TIMESERIES NLP0010_TS       NO                       

  
  ERROR 209: undefined object NLZ0000_TS at line 2844 of [OUTFALL] section:
  NLZ0000          -1.68      TIMESERIES NLZ0000_TS       NO                       

  
  ERROR 209: undefined object NLZ0002_TS at line 2845 of [OUTFALL] section:
  NLZ0002          -5         TIMESERIES NLZ0002_TS       NO                       

  
  ERROR 209: undefined object NLZ0006_TS at line 2846 of [OUTFALL] section:
  NLZ0006          -5         TIMESERIES NLZ0006_TS       NO                       

  
  ERROR 209: undefined object NLJ1010_TS at line 2848 of [OUTFALL] section:
  NLJ1010          -1.5       TIMESERIES NLJ1010_TS       NO                       

  
  ERROR 209: undefined object NLZ0003_TS at line 2849 of [OUTFALL] section:
  NLZ0003          -5         TIMESERIES NLZ0003_TS       NO                       

  
  ERROR 209: undefined object NLZ0011_TS at line 2854 of [OUTFALL] section:
  NLZ0011          -5         TIMESERIES NLZ0011_TS       NO                       

  
  ERROR 211: invalid number 0 at line 23110 of [XSECT] section:
  RLH1475          CIRCULAR     1                1          0          0          0                    

  
  ERROR 211: invalid number 0 at line 23117 of [XSECT] section:
  RLH2740          HORIZ_ELLIPSE 3.16             2          0          0          0                    

  
  ERROR 211: invalid number 0 at line 40224 of [TRANSECT] section:
  NC -0.25    0.015    0.015   


  Analysis begun on:  Fri Mar  6 13:35:49 2026
  Analysis ended on:  Fri Mar  6 13:35:49 2026
  Total elapsed time: < 1 sec