
  EPA STORM WATER MANAGEMENT MODEL - VERSION 5.2 (Build 5.2.4)
  ------------------------------------------------------------

  
  ERROR 211: invalid number  at line 3426 of [XSECT] section:
  1000             CIRCULAR     0.000000         0.000000   0.000000   0.000000   1          0         

  
  ERROR 211: invalid number  at line 3427 of [XSECT] section:
  1001             CIRCULAR     0.000000         0.000000   0.000000   0.000000   1          0         

  
  ERROR 211: invalid number  at line 3428 of [XSECT] section:
  1011             CIRCULAR     0.000000         0.000000   0.000000   0.000000   1          0         

  
  ERROR 211: invalid number  at line 3429 of [XSECT] section:
  1012             CIRCULAR     0.000000         0.000000   0.000000   0.000000   1          0         

  
  ERROR 211: invalid number  at line 3430 of [XSECT] section:
  1015             CIRCULAR     0.000000         0.000000   0.000000   0.000000   1          0         

  
  ERROR 211: invalid number  at line 3431 of [XSECT] section:
  1016             CIRCULAR     0.000000         0.000000   0.000000   0.000000   1          0         

  
  ERROR 211: invalid number  at line 3432 of [XSECT] section:
  1021             CIRCULAR     0.000000         0.000000   0.000000   0.000000   1          0         

  
  ERROR 211: invalid number  at line 3433 of [XSECT] section:
  1025             CIRCULAR     0.000000         0.000000   0.000000   0.000000   1          0         

  
  ERROR 211: invalid number  at line 3434 of [XSECT] section:
  1028             CIRCULAR     0.000000         0.000000   0.000000   0.000000   1          0         

  
  ERROR 211: invalid number  at line 3435 of [XSECT] section:
  1030             CIRCULAR     0.000000         0.000000   0.000000   0.000000   1          0         

  
  ERROR 211: invalid number  at line 3436 of [XSECT] section:
  1031             CIRCULAR     0.000000         0.000000   0.000000   0.000000   1          0         

  
  ERROR 211: invalid number  at line 3437 of [XSECT] section:
  1035             CIRCULAR     0.000000         0.000000   0.000000   0.000000   1          0         

  
  ERROR 211: invalid number  at line 3438 of [XSECT] section:
  1036             CIRCULAR     0.000000         0.000000   0.000000   0.000000   1          0         

  
  ERROR 211: invalid number  at line 3439 of [XSECT] section:
  1037             CIRCULAR     0.000000         0.000000   0.000000   0.000000   1          0         

  
  ERROR 211: invalid number  at line 3440 of [XSECT] section:
  1042             CIRCULAR     0.000000         0.000000   0.000000   0.000000   1          0         

  
  ERROR 211: invalid number  at line 3441 of [XSECT] section:
  1043             CIRCULAR     0.000000         0.000000   0.000000   0.000000   1          0         

  
  ERROR 211: invalid number  at line 3442 of [XSECT] section:
  1045             CIRCULAR     0.000000         0.000000   0.000000   0.000000   1          0         

  
  ERROR 211: invalid number  at line 3443 of [XSECT] section:
  1046             CIRCULAR     0.000000         0.000000   0.000000   0.000000   1          0         

  
  ERROR 211: invalid number  at line 3444 of [XSECT] section:
  1048             CIRCULAR     0.000000         0.000000   0.000000   0.000000   1          0         

  
  ERROR 211: invalid number  at line 3445 of [XSECT] section:
  1049             CIRCULAR     0.000000         0.000000   0.000000   0.000000   1          0         

  
  ERROR 211: invalid number  at line 3446 of [XSECT] section:
  1050             CIRCULAR     0.000000         0.000000   0.000000   0.000000   1          0         

  
  ERROR 211: invalid number  at line 3447 of [XSECT] section:
  1052             CIRCULAR     0.000000         0.000000   0.000000   0.000000   1          0         

  
  ERROR 211: invalid number  at line 3448 of [XSECT] section:
  1053             CIRCULAR     0.000000         0.000000   0.000000   0.000000   1          0         

  
  ERROR 211: invalid number  at line 3449 of [XSECT] section:
  1054             CIRCULAR     0.000000         0.000000   0.000000   0.000000   1          0         

  
  ERROR 211: invalid number  at line 3450 of [XSECT] section:
  1056             CIRCULAR     0.000000         0.000000   0.000000   0.000000   1          0         

  
  ERROR 211: invalid number  at line 3451 of [XSECT] section:
  1059             CIRCULAR     0.000000         0.000000   0.000000   0.000000   1          0         

  
  ERROR 211: invalid number  at line 3452 of [XSECT] section:
  1060             CIRCULAR     0.000000         0.000000   0.000000   0.000000   1          0         

  
  ERROR 211: invalid number  at line 3453 of [XSECT] section:
  1061             CIRCULAR     0.000000         0.000000   0.000000   0.000000   1          0         

  
  ERROR 211: invalid number  at line 3454 of [XSECT] section:
  1063             CIRCULAR     0.000000         0.000000   0.000000   0.000000   1          0         

  
  ERROR 211: invalid number  at line 3455 of [XSECT] section:
  1067             CIRCULAR     0.000000         0.000000   0.000000   0.000000   1          0         

  
  ERROR 211: invalid number  at line 3456 of [XSECT] section:
  1068             CIRCULAR     0.000000         0.000000   0.000000   0.000000   1          0         

  
  ERROR 211: invalid number  at line 3457 of [XSECT] section:
  1069             CIRCULAR     0.000000         0.000000   0.000000   0.000000   1          0         

  
  ERROR 211: invalid number  at line 3458 of [XSECT] section:
  1070             CIRCULAR     0.000000         0.000000   0.000000   0.000000   1          0         

  
  ERROR 211: invalid number  at line 3459 of [XSECT] section:
  1071             CIRCULAR     0.000000         0.000000   0.000000   0.000000   1          0         

  
  ERROR 211: invalid number  at line 3460 of [XSECT] section:
  1072             CIRCULAR     0.000000         0.000000   0.000000   0.000000   1          0         

  
  ERROR 211: invalid number  at line 3461 of [XSECT] section:
  1073             CIRCULAR     0.000000         0.000000   0.000000   0.000000   1          0         

  
  ERROR 211: invalid number  at line 3462 of [XSECT] section:
  1074             CIRCULAR     0.000000         0.000000   0.000000   0.000000   1          0         

  
  ERROR 211: invalid number  at line 3463 of [XSECT] section:
  1075             CIRCULAR     0.000000         0.000000   0.000000   0.000000   1          0         

  
  ERROR 211: invalid number  at line 3464 of [XSECT] section:
  1076             CIRCULAR     0.000000         0.000000   0.000000   0.000000   1          0         

  
  ERROR 211: invalid number  at line 3465 of [XSECT] section:
  1077             CIRCULAR     0.000000         0.000000   0.000000   0.000000   1          0         

  
  ERROR 211: invalid number  at line 3466 of [XSECT] section:
  1078             CIRCULAR     0.000000         0.000000   0.000000   0.000000   1          0         

  
  ERROR 211: invalid number  at line 3467 of [XSECT] section:
  1081             CIRCULAR     0.000000         0.000000   0.000000   0.000000   1          0         

  
  ERROR 211: invalid number  at line 3468 of [XSECT] section:
  1082             CIRCULAR     0.000000         0.000000   0.000000   0.000000   1          0         

  
  ERROR 211: invalid number  at line 3469 of [XSECT] section:
  1083             CIRCULAR     0.000000         0.000000   0.000000   0.000000   1          0         

  
  ERROR 211: invalid number  at line 3470 of [XSECT] section:
  1084             CIRCULAR     0.000000         0.000000   0.000000   0.000000   1          0         

  
  ERROR 211: invalid number  at line 3471 of [XSECT] section:
  1085             CIRCULAR     0.000000         0.000000   0.000000   0.000000   1          0         

  
  ERROR 211: invalid number  at line 3472 of [XSECT] section:
  1086             CIRCULAR     0.000000         0.000000   0.000000   0.000000   1          0         

  
  ERROR 211: invalid number  at line 3473 of [XSECT] section:
  1087             CIRCULAR     0.000000         0.000000   0.000000   0.000000   1          0         

  
  ERROR 211: invalid number  at line 3474 of [XSECT] section:
  1088             CIRCULAR     0.000000         0.000000   0.000000   0.000000   1          0         

  
  ERROR 211: invalid number  at line 3475 of [XSECT] section:
  1089             CIRCULAR     0.000000         0.000000   0.000000   0.000000   1          0         

  
  ERROR 211: invalid number  at line 3476 of [XSECT] section:
  1090             CIRCULAR     0.000000         0.000000   0.000000   0.000000   1          0         

  
  ERROR 211: invalid number  at line 3477 of [XSECT] section:
  1091             CIRCULAR     0.000000         0.000000   0.000000   0.000000   1          0         

  
  ERROR 211: invalid number  at line 3478 of [XSECT] section:
  1092             CIRCULAR     0.000000         0.000000   0.000000   0.000000   1          0         

  
  ERROR 211: invalid number  at line 3479 of [XSECT] section:
  1094             CIRCULAR     0.000000         0.000000   0.000000   0.000000   1          0         

  
  ERROR 211: invalid number  at line 3480 of [XSECT] section:
  1096             CIRCULAR     0.000000         0.000000   0.000000   0.000000   1          0         

  
  ERROR 211: invalid number  at line 3481 of [XSECT] section:
  1098             CIRCULAR     0.000000         0.000000   0.000000   0.000000   1          0         

  
  ERROR 211: invalid number  at line 3482 of [XSECT] section:
  1099             CIRCULAR     0.000000         0.000000   0.000000   0.000000   1          0         

  
  ERROR 211: invalid number  at line 3483 of [XSECT] section:
  1103             CIRCULAR     0.000000         0.000000   0.000000   0.000000   1          0         

  
  ERROR 211: invalid number  at line 3484 of [XSECT] section:
  1105             CIRCULAR     0.000000         0.000000   0.000000   0.000000   1          0         

  
  ERROR 211: invalid number  at line 3485 of [XSECT] section:
  1106             CIRCULAR     0.000000         0.000000   0.000000   0.000000   1          0         

  
  ERROR 211: invalid number  at line 3486 of [XSECT] section:
  1107             CIRCULAR     0.000000         0.000000   0.000000   0.000000   1          0         

  
  ERROR 211: invalid number  at line 3487 of [XSECT] section:
  1108             CIRCULAR     0.000000         0.000000   0.000000   0.000000   1          0         

  
  ERROR 211: invalid number  at line 3488 of [XSECT] section:
  1109             CIRCULAR     0.000000         0.000000   0.000000   0.000000   1          0         

  
  ERROR 211: invalid number  at line 3489 of [XSECT] section:
  1111             CIRCULAR     0.000000         0.000000   0.000000   0.000000   1          0         

  
  ERROR 211: invalid number  at line 3490 of [XSECT] section:
  1112             CIRCULAR     0.000000         0.000000   0.000000   0.000000   1          0         

  
  ERROR 211: invalid number  at line 3491 of [XSECT] section:
  1113             CIRCULAR     0.000000         0.000000   0.000000   0.000000   1          0         

  
  ERROR 211: invalid number  at line 3492 of [XSECT] section:
  1116             CIRCULAR     0.000000         0.000000   0.000000   0.000000   1          0         

  
  ERROR 211: invalid number  at line 3493 of [XSECT] section:
  1117             CIRCULAR     0.000000         0.000000   0.000000   0.000000   1          0         

  
  ERROR 211: invalid number  at line 3494 of [XSECT] section:
  1123             CIRCULAR     0.000000         0.000000   0.000000   0.000000   1          0         

  
  ERROR 211: invalid number  at line 3495 of [XSECT] section:
  1125             CIRCULAR     0.000000         0.000000   0.000000   0.000000   1          0         

  
  ERROR 211: invalid number  at line 3496 of [XSECT] section:
  1130             CIRCULAR     0.000000         0.000000   0.000000   0.000000   1          0         

  
  ERROR 211: invalid number  at line 3497 of [XSECT] section:
  1131             CIRCULAR     0.000000         0.000000   0.000000   0.000000   1          0         

  
  ERROR 211: invalid number  at line 3498 of [XSECT] section:
  1133             CIRCULAR     0.000000         0.000000   0.000000   0.000000   1          0         

  
  ERROR 211: invalid number  at line 3499 of [XSECT] section:
  1134             CIRCULAR     0.000000         0.000000   0.000000   0.000000   1          0         

  
  ERROR 211: invalid number  at line 3500 of [XSECT] section:
  1135             CIRCULAR     0.000000         0.000000   0.000000   0.000000   1          0         

  
  ERROR 211: invalid number  at line 3501 of [XSECT] section:
  1136             CIRCULAR     0.000000         0.000000   0.000000   0.000000   1          0         

  
  ERROR 211: invalid number  at line 3502 of [XSECT] section:
  1138             CIRCULAR     0.000000         0.000000   0.000000   0.000000   1          0         

  
  ERROR 211: invalid number  at line 3503 of [XSECT] section:
  1139             CIRCULAR     0.000000         0.000000   0.000000   0.000000   1          0         

  
  ERROR 211: invalid number  at line 3504 of [XSECT] section:
  1140             CIRCULAR     0.000000         0.000000   0.000000   0.000000   1          0         

  
  ERROR 211: invalid number  at line 3505 of [XSECT] section:
  1141             CIRCULAR     0.000000         0.000000   0.000000   0.000000   1          0         

  
  ERROR 211: invalid number  at line 3506 of [XSECT] section:
  11410            CIRCULAR     0.000000         0.000000   0.000000   0.000000   1          0         

  
  ERROR 211: invalid number  at line 3507 of [XSECT] section:
  11411            CIRCULAR     0.000000         0.000000   0.000000   0.000000   1          0         

  
  ERROR 211: invalid number  at line 3508 of [XSECT] section:
  1142             CIRCULAR     0.000000         0.000000   0.000000   0.000000   1          0         

  
  ERROR 211: invalid number  at line 3509 of [XSECT] section:
  11428            CIRCULAR     0.000000         0.000000   0.000000   0.000000   1          0         

  
  ERROR 211: invalid number  at line 3510 of [XSECT] section:
  11429            CIRCULAR     0.000000         0.000000   0.000000   0.000000   1          0         

  
  ERROR 211: invalid number  at line 3511 of [XSECT] section:
  11430            CIRCULAR     0.000000         0.000000   0.000000   0.000000   1          0         

  
  ERROR 211: invalid number  at line 3512 of [XSECT] section:
  11434            CIRCULAR     0.000000         0.000000   0.000000   0.000000   1          0         

  
  ERROR 211: invalid number  at line 3513 of [XSECT] section:
  11435            CIRCULAR     0.000000         0.000000   0.000000   0.000000   1          0         

  
  ERROR 211: invalid number  at line 3514 of [XSECT] section:
  11436            CIRCULAR     0.000000         0.000000   0.000000   0.000000   1          0         

  
  ERROR 211: invalid number  at line 3515 of [XSECT] section:
  11437            CIRCULAR     0.000000         0.000000   0.000000   0.000000   1          0         

  
  ERROR 211: invalid number  at line 3516 of [XSECT] section:
  11452            CIRCULAR     0.000000         0.000000   0.000000   0.000000   1          0         

  
  ERROR 211: invalid number  at line 3517 of [XSECT] section:
  11453            CIRCULAR     0.000000         0.000000   0.000000   0.000000   1          0         

  
  ERROR 211: invalid number  at line 3518 of [XSECT] section:
  11454            CIRCULAR     0.000000         0.000000   0.000000   0.000000   1          0         

  
  ERROR 211: invalid number  at line 3519 of [XSECT] section:
  11455            CIRCULAR     0.000000         0.000000   0.000000   0.000000   1          0         

  
  ERROR 211: invalid number  at line 3520 of [XSECT] section:
  11456            CIRCULAR     0.000000         0.000000   0.000000   0.000000   1          0         

  
  ERROR 211: invalid number  at line 3521 of [XSECT] section:
  11457            CIRCULAR     0.000000         0.000000   0.000000   0.000000   1          0         

  
  ERROR 211: invalid number  at line 3522 of [XSECT] section:
  1147             CIRCULAR     0.000000         0.000000   0.000000   0.000000   1          0         

  
  ERROR 211: invalid number  at line 3523 of [XSECT] section:
  11496            CIRCULAR     0.000000         0.000000   0.000000   0.000000   1          0         

  
  ERROR 211: invalid number  at line 3524 of [XSECT] section:
  11497            CIRCULAR     0.000000         0.000000   0.000000   0.000000   1          0         

  
  ERROR 211: invalid number  at line 3525 of [XSECT] section:
  1150             CIRCULAR     0.000000         0.000000   0.000000   0.000000   1          0         

  
  Maximum error count exceeded.

  Analysis begun on:  Fri Mar  6 13:35:49 2026
  Analysis ended on:  Fri Mar  6 13:35:49 2026
  Total elapsed time: < 1 sec