
  EPA STORM WATER MANAGEMENT MODEL - VERSION 5.2 (Build 5.2.4)
  ------------------------------------------------------------

  WARNING 02: maximum depth increased for Node 15
  
  *************
  Element Count
  *************
  Number of rain gages ...... 1
  Number of subcatchments ... 8
  Number of nodes ........... 24
  Number of links ........... 20
  Number of pollutants ...... 0
  Number of land uses ....... 0
  
  
  ****************
  Raingage Summary
  ****************
                                                      Data       Recording
  Name                 Data Source                    Type       Interval 
  ------------------------------------------------------------------------
  1                    Chicago_Rain                   INTENSITY    5 min.
  
  
  ********************
  Subcatchment Summary
  ********************
  Name                       Area     Width   %Imperv    %Slope Rain Gage            Outlet              
  -----------------------------------------------------------------------------------------------------------
  25                        95.00    331.80     80.00    0.8700 1                    2                   
  26                        47.50    338.08     90.00    1.7000 1                    4                   
  27                       201.30   2185.46     70.00    1.4000 1                    7                   
  28                       184.65   1650.04     70.00    1.3000 1                    12                  
  29                        74.83    895.88     85.00    0.8300 1                    15                  
  30                       224.40   1355.68     75.00    1.4000 1                    19                  
  31                        64.00    954.28     60.00    2.2000 1                    17                  
  32                        45.92   1045.48     60.00    1.0000 1                    24                  
  
  
  ************
  Node Summary
  ************
                                           Invert      Max.    Ponded    External
  Name                 Type                 Elev.     Depth      Area    Inflow  
  -------------------------------------------------------------------------------
  1                    JUNCTION             54.90      3.00       0.0    Yes
  3                    JUNCTION             62.00      3.00       0.0    Yes
  4                    JUNCTION             36.00      3.00       0.0    Yes
  12                   JUNCTION             17.40      3.00       0.0
  13                   JUNCTION             23.00      3.00       0.0    Yes
  15                   JUNCTION             16.00      3.50       0.0
  16                   JUNCTION             54.50      3.00       0.0    Yes
  19                   JUNCTION              0.00      3.00       0.0
  20                   JUNCTION             47.30      3.00       0.0    Yes
  21                   JUNCTION             26.00      3.00       0.0    Yes
  22                   JUNCTION             20.90      3.00       0.0
  24                   JUNCTION             13.60      3.00       0.0
  8                    OUTFALL              53.50      1.00       0.0    Yes
  2                    STORAGE              38.00      2.50       0.0
  5                    STORAGE              33.00      2.50       0.0
  6                    STORAGE              30.00      2.50       0.0
  7                    STORAGE              21.70      2.50       0.0
  9                    STORAGE               0.00      0.00       0.0
  10                   STORAGE              23.70      2.50       0.0
  11                   STORAGE              21.00      2.50       0.0
  14                   STORAGE              17.00      2.50       0.0
  17                   STORAGE              37.00      2.50       0.0
  18                   STORAGE              17.80      2.50       0.0
  23                   STORAGE              15.00      2.50       0.0
  
  
  ************
  Link Summary
  ************
  Name             From Node        To Node          Type            Length    %Slope Roughness
  ---------------------------------------------------------------------------------------------
  1                1                2                CONDUIT         2861.0    0.5907    0.0140
  2                3                4                CONDUIT         1364.7    1.9055    0.0140
  3                4                5                CONDUIT          400.0    0.7500    0.0140
  4                5                6                CONDUIT          921.1    0.3257    0.0140
  5                6                7                CONDUIT          908.5    0.9136    0.0140
  6                8                9                CONDUIT          332.5   16.3033    0.0140
  7                9                10               CONDUIT          400.0   -5.9354    0.0100
  8                10               11               CONDUIT          487.9    0.5534    0.0140
  9                11               12               CONDUIT          400.0    0.9000    0.0100
  10               9                10               CONDUIT         1605.6   -1.4762    0.0140
  11               11               12               CONDUIT          762.7    0.4720    0.0140
  12               13               14               CONDUIT          835.4    0.7183    0.0140
  13               14               15               CONDUIT          248.8    0.4020    0.0140
  14               16               17               CONDUIT          533.6    3.2811    0.0140
  15               17               18               CONDUIT         1655.3    1.1600    0.0140
  16               18               19               CONDUIT          456.7    3.9007    0.0140
  17               20               17               CONDUIT          671.3    1.5344    0.0140
  18               21               22               CONDUIT          353.2    1.4440    0.0140
  19               22               23               CONDUIT          439.2    1.3433    0.0140
  20               23               24               CONDUIT          253.4    0.5524    0.0140
  
  
  *********************
  Cross Section Summary
  *********************
                                        Full     Full     Hyd.     Max.   No. of     Full
  Conduit          Shape               Depth     Area     Rad.    Width  Barrels     Flow
  ---------------------------------------------------------------------------------------
  1                CIRCULAR             2.00     3.14     0.50     2.00        1    10.87
  2                CIRCULAR             2.00     3.14     0.50     2.00        1    19.52
  3                CIRCULAR             2.00     3.14     0.50     2.00        1    12.24
  4                CIRCULAR             3.00     7.07     0.75     3.00        1    23.79
  5                CIRCULAR             3.00     7.07     0.75     3.00        1    39.84
  6                CIRCULAR             1.00     0.79     0.25     1.00        1     8.99
  7                CIRCULAR             1.00     0.79     0.25     1.00        1     7.59
  8                CIRCULAR             2.00     3.14     0.50     2.00        1    10.52
  9                CIRCULAR             1.00     0.79     0.25     1.00        1     2.96
  10               CIRCULAR             2.00     3.14     0.50     2.00        1    17.18
  11               CIRCULAR             1.00     0.79     0.25     1.00        1     1.53
  12               CIRCULAR             3.00     7.07     0.75     3.00        1    35.33
  13               CIRCULAR             3.50     9.62     0.87     3.50        1    39.87
  14               CIRCULAR             1.00     0.79     0.25     1.00        1     4.03
  15               CIRCULAR             2.50     4.91     0.62     2.50        1    27.61
  16               CIRCULAR             3.00     7.07     0.75     3.00        1    82.33
  17               CIRCULAR             1.00     0.79     0.25     1.00        1     2.76
  18               CIRCULAR             1.00     0.79     0.25     1.00        1     2.68
  19               CIRCULAR             2.00     3.14     0.50     2.00        1    16.39
  20               CIRCULAR             2.50     4.91     0.62     2.50        1    19.05
  
  
  ****************
  Analysis Options
  ****************
  Flow Units ............... CMS
  Process Models:
    Rainfall/Runoff ........ YES
    RDII ................... NO
    Snowmelt ............... NO
    Groundwater ............ NO
    Flow Routing ........... YES
    Ponding Allowed ........ YES
    Water Quality .......... NO
  Infiltration Method ...... HORTON
  Flow Routing Method ...... DYNWAVE
  Surcharge Method ......... EXTRAN
  Starting Date ............ 02/22/2013 00:00:00
  Ending Date .............. 02/22/2013 02:00:00
  Antecedent Dry Days ...... 0.0
  Report Time Step ......... 00:01:00
  Wet Time Step ............ 00:00:30
  Dry Time Step ............ 00:01:00
  Routing Time Step ........ 30.00 sec
  Variable Time Step ....... YES
  Maximum Trials ........... 8
  Number of Threads ........ 1
  Head Tolerance ........... 0.001500 m
  
  
  **************************        Volume         Depth
  Runoff Quantity Continuity     hectare-m            mm
  **************************     ---------       -------
  Total Precipitation ......       118.168       126.032
  Evaporation Loss .........         0.000         0.000
  Infiltration Loss ........         0.397         0.423
  Surface Runoff ...........        95.065       101.392
  Final Storage ............        22.921        24.447
  Continuity Error (%) .....        -0.182
  
  
  **************************        Volume        Volume
  Flow Routing Continuity        hectare-m      10^6 ltr
  **************************     ---------     ---------
  Dry Weather Inflow .......         0.000         0.000
  Wet Weather Inflow .......        94.722       947.230
  Groundwater Inflow .......         0.000         0.000
  RDII Inflow ..............         0.000         0.000
  External Inflow ..........       364.174      3641.774
  External Outflow .........        45.522       455.222
  Flooding Loss ............       408.807      4088.108
  Evaporation Loss .........         0.000         0.000
  Exfiltration Loss ........         0.000         0.000
  Initial Stored Volume ....         0.000         0.000
  Final Stored Volume ......         5.347        53.466
  Continuity Error (%) .....        -0.170
  
  
  *************************
  Highest Continuity Errors
  *************************
  Node 23 (5.04%)
  Node 6 (2.80%)
  Node 5 (2.42%)
  Node 17 (2.30%)
  Node 18 (1.86%)
  
  
  ***************************
  Time-Step Critical Elements
  ***************************
  Link 3 (89.24%)
  Link 13 (3.98%)
  
  
  ********************************
  Highest Flow Instability Indexes
  ********************************
  Link 20 (14)
  Link 15 (2)
  Link 12 (2)
  
  
  *********************************
  Most Frequent Nonconverging Nodes
  *********************************
  Node 8 (3.59%)
  Node 24 (2.79%)
  Node 15 (0.40%)
  Node 14 (0.40%)
  
  
  *************************
  Routing Time Step Summary
  *************************
  Minimum Time Step           :    17.35 sec
  Average Time Step           :    28.69 sec
  Maximum Time Step           :    30.00 sec
  % of Time in Steady State   :     0.00
  Average Iterations per Step :     2.57
  % of Steps Not Converging   :     3.59
  Time Step Frequencies       :
     30.000 - 13.228 sec      :   100.00 %
     13.228 -  5.833 sec      :     0.00 %
      5.833 -  2.572 sec      :     0.00 %
      2.572 -  1.134 sec      :     0.00 %
      1.134 -  0.500 sec      :     0.00 %
  
  
  ***************************
  Subcatchment Runoff Summary
  ***************************
  
  ------------------------------------------------------------------------------------------------------------------------------
                            Total      Total      Total      Total     Imperv       Perv      Total       Total     Peak  Runoff
                           Precip      Runon       Evap      Infil     Runoff     Runoff     Runoff      Runoff   Runoff   Coeff
  Subcatchment                 mm         mm         mm         mm         mm         mm         mm    10^6 ltr      CMS
  ------------------------------------------------------------------------------------------------------------------------------
  25                       126.03       0.00       0.00       0.32      70.46      11.92      82.38       78.26    29.97   0.654
  26                       126.03       0.00       0.00       0.16      95.91      10.35     106.27       50.48    22.88   0.843
  27                       126.03       0.00       0.00       0.47      79.23      26.38     105.61      212.60   101.65   0.838
  28                       126.03       0.00       0.00       0.47      77.62      24.55     102.17      188.65    85.99   0.811
  29                       126.03       0.00       0.00       0.24      93.02      14.91     107.94       80.77    37.94   0.856
  30                       126.03       0.00       0.00       0.40      79.06      19.23      98.29      220.57    93.24   0.780
  31                       126.03       0.00       0.00       0.63      70.84      37.57     108.41       69.38    35.70   0.860
  32                       126.03       0.00       0.00       0.63      70.93      37.82     108.75       49.94    25.81   0.863
  
  
  ******************
  Node Depth Summary
  ******************
  
  ---------------------------------------------------------------------------------
                                 Average  Maximum  Maximum  Time of Max    Reported
                                   Depth    Depth      HGL   Occurrence   Max Depth
  Node                 Type       Meters   Meters   Meters  days hr:min      Meters
  ---------------------------------------------------------------------------------
  1                    JUNCTION     2.87     3.00    57.90     0  00:05        3.00
  3                    JUNCTION     2.87     3.00    65.00     0  00:05        3.00
  4                    JUNCTION     2.87     3.00    39.00     0  00:05        3.00
  12                   JUNCTION     2.61     3.00    20.40     0  00:16        3.00
  13                   JUNCTION     2.54     3.00    26.00     0  00:05        3.00
  15                   JUNCTION     3.27     3.50    19.50     0  00:08        3.50
  16                   JUNCTION     2.87     3.00    57.50     0  00:05        3.00
  19                   JUNCTION     2.62     3.00     3.00     0  00:17        3.00
  20                   JUNCTION     2.87     3.00    50.30     0  00:05        3.00
  21                   JUNCTION     2.87     3.00    29.00     0  00:05        3.00
  22                   JUNCTION     0.55     0.66    21.56     0  00:09        0.66
  24                   JUNCTION     2.65     3.00    16.60     0  00:22        3.00
  8                    OUTFALL      0.00     0.00    53.50     0  00:00        0.00
  2                    STORAGE      2.23     2.50    40.50     0  00:17        2.50
  5                    STORAGE      1.60     1.74    34.74     0  00:17        1.74
  6                    STORAGE      1.12     1.26    31.26     0  00:28        1.26
  7                    STORAGE      2.15     2.50    24.20     0  00:20        2.50
  9                    STORAGE      0.00     0.00     0.00     0  00:00        0.00
  10                   STORAGE      0.00     0.00    23.70     0  00:00        0.00
  11                   STORAGE      0.00     0.00    21.00     0  00:00        0.00
  14                   STORAGE      2.34     2.50    19.50     0  00:11        2.50
  17                   STORAGE      1.44     2.50    39.50     0  01:18        2.50
  18                   STORAGE      0.78     1.17    18.97     0  01:39        1.17
  23                   STORAGE      1.41     1.85    16.85     0  00:24        1.85
  
  
  *******************
  Node Inflow Summary
  *******************
  
  -------------------------------------------------------------------------------------------------
                                  Maximum  Maximum                  Lateral       Total        Flow
                                  Lateral    Total  Time of Max      Inflow      Inflow     Balance
                                   Inflow   Inflow   Occurrence      Volume      Volume       Error
  Node                 Type           CMS      CMS  days hr:min    10^6 ltr    10^6 ltr     Percent
  -------------------------------------------------------------------------------------------------
  1                    JUNCTION   283.057  283.057     0  01:15         455         455       0.084
  3                    JUNCTION   283.057  283.057     0  01:15         455         455       0.055
  4                    JUNCTION   296.437  315.952     0  01:15         506         639       0.113
  12                   JUNCTION    85.985   85.985     0  01:20         188         188       0.000
  13                   JUNCTION   283.057  283.057     0  01:15         455         455      -0.059
  15                   JUNCTION    37.942   38.852     0  01:20        80.5        89.6       0.000
  16                   JUNCTION   283.057  283.057     0  01:15         455         455       0.106
  19                   JUNCTION    93.237  118.381     0  01:20         220         322       0.000
  20                   JUNCTION   283.057  283.057     0  01:15         455         455       0.110
  21                   JUNCTION   283.057  283.057     0  01:15         455         455       0.110
  22                   JUNCTION     0.000    3.046     0  00:09           0        20.5       1.246
  24                   JUNCTION    25.811   28.884     0  01:20        49.8          68       0.000
  8                    OUTFALL    283.057  283.057     0  01:15         455         455       0.000
  2                    STORAGE     29.966   40.993     0  01:25        77.8         153       3.487
  5                    STORAGE      0.000   14.665     0  00:17           0         100       2.481
  6                    STORAGE      0.000   14.821     0  00:19           0          96       2.880
  7                    STORAGE    101.651  116.283     0  01:20         212         304       1.131
  9                    STORAGE      0.000    0.000     0  00:00           0           0       0.000 ltr
  10                   STORAGE      0.000    0.000     0  00:00           0           0       0.000 ltr
  11                   STORAGE      0.000    0.000     0  00:00           0           0       0.000 ltr
  14                   STORAGE      0.000   37.966     0  00:47           0         231       1.740
  17                   STORAGE     35.702   42.616     0  01:20        69.2         118       2.357
  18                   STORAGE      0.000   26.777     0  01:38           0         106       1.897
  23                   STORAGE      0.000    5.351     0  00:15           0        20.8       5.305
  
  
  **********************
  Node Surcharge Summary
  **********************
  
  Surcharging occurs when water rises above the top of the highest conduit.
  ---------------------------------------------------------------------
                                               Max. Height   Min. Depth
                                   Hours       Above Crown    Below Rim
  Node                 Type      Surcharged         Meters       Meters
  ---------------------------------------------------------------------
  1                    JUNCTION        1.92          1.000        0.000
  3                    JUNCTION        1.92          1.000        0.000
  4                    JUNCTION        1.92          1.000        0.000
  12                   JUNCTION        1.73          2.000        0.000
  13                   JUNCTION        1.22          0.000        0.000
  15                   JUNCTION        1.86          0.000        0.000
  16                   JUNCTION        1.92          2.000        0.000
  19                   JUNCTION        1.71          0.000        0.000
  20                   JUNCTION        1.92          2.000        0.000
  21                   JUNCTION        1.92          2.000        0.000
  24                   JUNCTION        1.71          0.500        0.000
  
  
  *********************
  Node Flooding Summary
  *********************
  
  Flooding refers to all water that overflows a node, whether it ponds or not.
  --------------------------------------------------------------------------
                                                             Total   Maximum
                                 Maximum   Time of Max       Flood    Ponded
                        Hours       Rate    Occurrence      Volume     Depth
  Node                 Flooded       CMS   days hr:min    10^6 ltr    Meters
  --------------------------------------------------------------------------
  1                       1.92   269.315      0  01:15     380.203     0.000
  3                       1.92   260.826      0  01:15     321.328     0.000
  4                       1.92   298.011      0  01:15     539.232     0.000
  12                      1.73    85.496      0  01:20     187.556     0.000
  13                      1.22   243.555      0  01:15     224.302     0.000
  15                      1.86    38.636      0  01:20      88.606     0.000
  16                      1.92   276.182      0  01:15     426.594     0.000
  19                      1.71   118.283      0  01:20     320.948     0.000
  20                      1.92   277.436      0  01:15     435.116     0.000
  21                      1.92   277.352      0  01:15     434.681     0.000
  24                      1.64    28.488      0  01:20      66.844     0.000
  2                       1.71    40.922      0  01:25     145.545     0.000
  7                       1.67   115.386      0  01:20     298.777     0.000
  14                      1.82    36.868      0  00:47     216.010     0.000
  17                      0.27    16.840      0  01:20       8.063     0.000
  
  
  **********************
  Storage Volume Summary
  **********************
  
  ------------------------------------------------------------------------------------------------
                         Average    Avg   Evap  Exfil     Maximum    Max    Time of Max    Maximum
                          Volume   Pcnt   Pcnt   Pcnt      Volume   Pcnt     Occurrence    Outflow
  Storage Unit           1000 mł   Full   Loss   Loss     1000 mł   Full    days hr:min        CMS
  ------------------------------------------------------------------------------------------------
  2                        2.228   89.1    0.0    0.0       2.500  100.0       0  00:17      0.000
  5                        1.599   64.0    0.0    0.0       1.745   69.8       0  00:17     14.821
  6                        1.120   44.8    0.0    0.0       1.258   50.3       0  00:28     14.646
  7                        2.149   86.0    0.0    0.0       2.500  100.0       0  00:20      0.000
  9                        0.000    0.0    0.0    0.0       0.000    0.0       0  00:00      0.000
  10                       0.000    0.0    0.0    0.0       0.000    0.0       0  00:00      0.000
  11                       0.000    0.0    0.0    0.0       0.000    0.0       0  00:00      0.000
  14                       2.335   93.4    0.0    0.0       2.500  100.0       0  00:11     19.137
  17                       1.443   57.7    0.0    0.0       2.500  100.0       0  01:18     26.777
  18                       0.784   31.4    0.0    0.0       1.172   46.9       0  01:39     26.552
  23                       1.411   56.4    0.0    0.0       1.854   74.2       0  00:24      5.906
  
  
  ***********************
  Outfall Loading Summary
  ***********************
  
  -----------------------------------------------------------
                         Flow       Avg       Max       Total
                         Freq      Flow      Flow      Volume
  Outfall Node           Pcnt       CMS       CMS    10^6 ltr
  -----------------------------------------------------------
  8                     95.62    65.724   283.057     455.220
  -----------------------------------------------------------
  System                95.62    65.724   283.057     455.220
  
  
  ********************
  Link Flow Summary
  ********************
  
  -----------------------------------------------------------------------------
                                 Maximum  Time of Max   Maximum    Max/    Max/
                                  |Flow|   Occurrence   |Veloc|    Full    Full
  Link                 Type          CMS  days hr:min     m/sec    Flow   Depth
  -----------------------------------------------------------------------------
  1                    CONDUIT    11.983     0  00:15      4.72    1.10    1.00
  2                    CONDUIT    19.515     0  00:23      6.21    1.00    1.00
  3                    CONDUIT    14.665     0  00:17      6.41    1.20    0.94
  4                    CONDUIT    14.821     0  00:19      4.61    0.62    0.50
  5                    CONDUIT    14.646     0  00:29      4.47    0.37    0.63
  6                    CONDUIT     0.000     0  00:00      0.00    0.00    0.00
  7                    CONDUIT     0.000     0  00:00      0.00    0.00    0.00
  8                    CONDUIT     0.000     0  00:00      0.00    0.00    0.00
  9                    CONDUIT     0.000     0  00:00      0.00    0.00    0.50
  10                   CONDUIT     0.000     0  00:00      0.00    0.00    0.00
  11                   CONDUIT     0.000     0  00:00      0.00    0.00    0.50
  12                   CONDUIT    37.966     0  00:47      7.29    1.07    0.92
  13                   CONDUIT    19.137     0  00:08      2.93    0.48    0.86
  14                   CONDUIT     4.316     0  00:17      7.13    1.07    1.00
  15                   CONDUIT    26.777     0  01:38      7.59    0.97    0.73
  16                   CONDUIT    26.552     0  01:39      5.06    0.32    0.70
  17                   CONDUIT     3.102     0  00:16      5.00    1.12    1.00
  18                   CONDUIT     3.046     0  00:09      4.92    1.14    0.83
  19                   CONDUIT     3.238     0  00:10      5.79    0.20    0.61
  20                   CONDUIT     5.906     0  00:26      1.55    0.31    0.87
  
  
  ***************************
  Flow Classification Summary
  ***************************
  
  -------------------------------------------------------------------------------------
                      Adjusted    ---------- Fraction of Time in Flow Class ---------- 
                       /Actual         Up    Down  Sub   Sup   Up    Down  Norm  Inlet 
  Conduit               Length    Dry  Dry   Dry   Crit  Crit  Crit  Crit  Ltd   Ctrl  
  -------------------------------------------------------------------------------------
  1                       1.00   0.04  0.00  0.00  0.90  0.06  0.00  0.00  0.00  0.00
  2                       1.00   0.04  0.00  0.00  0.96  0.00  0.00  0.00  0.00  0.00
  3                       1.00   0.04  0.00  0.00  0.90  0.05  0.00  0.00  0.00  0.00
  4                       1.00   0.04  0.00  0.00  0.00  0.95  0.00  0.00  0.00  0.00
  5                       1.00   0.04  0.00  0.00  0.87  0.09  0.00  0.00  0.87  0.00
  6                       1.00   1.00  0.00  0.00  0.00  0.00  0.00  0.00  0.00  0.00
  7                       1.00   1.00  0.00  0.00  0.00  0.00  0.00  0.00  0.00  0.00
  8                       1.00   1.00  0.00  0.00  0.00  0.00  0.00  0.00  0.00  0.00
  9                       1.00   0.04  0.96  0.00  0.00  0.00  0.00  0.00  0.00  0.00
  10                      1.00   1.00  0.00  0.00  0.00  0.00  0.00  0.00  0.00  0.00
  11                      1.00   0.04  0.96  0.00  0.00  0.00  0.00  0.00  0.00  0.00
  12                      1.00   0.04  0.00  0.00  0.70  0.26  0.00  0.00  0.21  0.00
  13                      1.00   0.04  0.00  0.00  0.94  0.02  0.00  0.00  0.01  0.00
  14                      1.00   0.04  0.00  0.00  0.86  0.10  0.00  0.00  0.00  0.00
  15                      1.00   0.04  0.00  0.00  0.00  0.96  0.00  0.00  0.00  0.00
  16                      1.00   0.04  0.00  0.00  0.70  0.26  0.00  0.00  0.96  0.00
  17                      1.00   0.04  0.00  0.00  0.89  0.07  0.00  0.00  0.00  0.00
  18                      1.00   0.04  0.00  0.00  0.00  0.96  0.00  0.00  0.00  0.00
  19                      1.00   0.04  0.00  0.00  0.85  0.10  0.00  0.00  0.88  0.00
  20                      1.00   0.04  0.00  0.00  0.95  0.00  0.00  0.00  0.06  0.00
  
  
  *************************
  Conduit Surcharge Summary
  *************************
  
  ----------------------------------------------------------------------------
                                                           Hours        Hours 
                         --------- Hours Full --------   Above Full   Capacity
  Conduit                Both Ends  Upstream  Dnstream   Normal Flow   Limited
  ----------------------------------------------------------------------------
  1                           1.73      1.92      1.73      1.77         1.73
  2                           1.92      1.92      1.92      0.01         0.01
  3                           0.01      1.92      0.01      1.90         0.01
  12                          0.01      0.01      0.01      1.28         0.01
  13                          0.01      0.01      1.86      0.01         0.01
  14                          1.70      1.92      1.70      1.82         1.70
  15                          0.01      0.27      0.01      0.01         0.01
  16                          0.01      0.01      1.71      0.01         0.01
  17                          1.70      1.92      1.70      1.85         1.70
  18                          0.01      1.92      0.01      1.90         0.01
  20                          0.01      0.01      1.71      0.01         0.01
  

  Analysis begun on:  Fri Mar  6 13:36:42 2026
  Analysis ended on:  Fri Mar  6 13:36:42 2026
  Total elapsed time: < 1 sec