
  EPA STORM WATER MANAGEMENT MODEL - VERSION 5.2 (Build 5.2.4)
  ------------------------------------------------------------

  WARNING 02: maximum depth increased for Node J24
  WARNING 02: maximum depth increased for Node J36
  WARNING 02: maximum depth increased for Node SU1
  
  *************
  Element Count
  *************
  Number of rain gages ...... 1
  Number of subcatchments ... 17
  Number of nodes ........... 32
  Number of links ........... 31
  Number of pollutants ...... 0
  Number of land uses ....... 0
  
  
  ****************
  Raingage Summary
  ****************
                                                      Data       Recording
  Name                 Data Source                    Type       Interval 
  ------------------------------------------------------------------------
  SJT-VFX              Tr10                           INTENSITY    1 min.
  
  
  ********************
  Subcatchment Summary
  ********************
  Name                       Area     Width   %Imperv    %Slope Rain Gage            Outlet              
  -----------------------------------------------------------------------------------------------------------
  SB1                        0.12     32.00      0.00    1.2000 SJT-VFX              J1                  
  SB2                        0.02      6.60      0.00    1.0000 SJT-VFX              J41                 
  SB3                        0.01      6.10    100.00   27.0000 SJT-VFX              J3                  
  SB4                        0.00      5.60    100.00   27.0000 SJT-VFX              J31                 
  SB5                        0.01      7.80    100.00    1.0000 SJT-VFX              J35                 
  SB6                        0.00      5.50    100.00   27.0000 SJT-VFX              J6                  
  SB7                        0.00      2.10    100.00   27.0000 SJT-VFX              J7                  
  SB8                        0.00      1.20    100.00   27.0000 SJT-VFX              J8                  
  SB9                        0.02      9.20    100.00    1.0000 SJT-VFX              J40                 
  SB10                       0.01      5.00    100.00    1.0000 SJT-VFX              J10                 
  SB11                       0.00      2.50    100.00   27.0000 SJT-VFX              J11                 
  SB12                       0.01      3.90    100.00    1.0000 SJT-VFX              J12                 
  SB13                       0.01      5.00    100.00    1.0000 SJT-VFX              J13                 
  SB14                       0.00      1.60    100.00   27.0000 SJT-VFX              J14                 
  SB15                       0.01      4.80    100.00   27.0000 SJT-VFX              J15                 
  SB16                       0.08     13.90      0.00    1.0000 SJT-VFX              J16                 
  SB17                       0.02      4.80    100.00    1.0000 SJT-VFX              J17                 
  
  
  ************
  Node Summary
  ************
                                           Invert      Max.    Ponded    External
  Name                 Type                 Elev.     Depth      Area    Inflow  
  -------------------------------------------------------------------------------
  J1                   JUNCTION             49.00      0.10     500.0
  J2                   JUNCTION             48.50      0.10     500.0
  J3                   JUNCTION             53.30      0.50     500.0
  J6                   JUNCTION             53.30      0.50     500.0
  J7                   JUNCTION             53.30      0.50     500.0
  J8                   JUNCTION             53.30      0.50     500.0
  J9                   JUNCTION             47.90      0.10     500.0
  J10                  JUNCTION             47.80      0.10     500.0
  J11                  JUNCTION             51.00      0.50     500.0
  J12                  JUNCTION             47.90      1.50     500.0
  J13                  JUNCTION             47.60      0.50     500.0
  J14                  JUNCTION             53.30      0.10     500.0
  J15                  JUNCTION             53.30      0.10     500.0
  J16                  JUNCTION             47.70      1.10     500.0
  J17                  JUNCTION             47.20      0.10     500.0
  J18                  JUNCTION             48.20      0.05     500.0
  J19                  JUNCTION             48.60      0.05     500.0
  J20                  JUNCTION             48.30      0.05     500.0
  J24                  JUNCTION             48.30      3.50     500.0
  J26                  JUNCTION             47.80      2.50     500.0
  J29                  JUNCTION             47.70      0.15     500.0
  J31                  JUNCTION             53.30      0.50     500.0
  J32                  JUNCTION             47.10      0.05     500.0
  J35                  JUNCTION             48.20      0.20     500.0
  J36                  JUNCTION             48.30      3.45     500.0
  J37                  JUNCTION             51.30      1.50     500.0
  J38                  JUNCTION             51.28      0.12     500.0
  J39                  JUNCTION             51.27      1.50     500.0
  J40                  JUNCTION             47.85      0.10     500.0
  J41                  JUNCTION             48.40      0.05     500.0
  Exutório             OUTFALL              47.00      0.05       0.0
  SU1                  STORAGE              40.00      8.20       0.0
  
  
  ************
  Link Summary
  ************
  Name             From Node        To Node          Type            Length    %Slope Roughness
  ---------------------------------------------------------------------------------------------
  Sol1             J1               J2               CONDUIT           40.7    1.2292    0.0300
  Sol7             J6               J39              CONDUIT            8.2   12.6144    0.0130
  Sol8             J7               J37              CONDUIT            6.6   15.3048    0.0130
  Sol9             J8               J26              CONDUIT            3.7  327.0029    0.0130
  Sol26            J11              J12              CONDUIT           65.0    3.2325    0.0130
  Sol27            J12              J13              CONDUIT            6.5    4.5920    0.0130
  Sol28            J13              J17              CONDUIT           30.7    1.3026    0.0130
  Sol29            J14              J16              CONDUIT           40.0   11.5768    0.0130
  Sol31            J15              J16              CONDUIT           20.5   23.0262    0.0130
  Sol32            J16              J17              CONDUIT           14.4    3.4647    0.0130
  Sol33            J17              J32              CONDUIT           20.6    0.4843    0.0130
  Sol35            J18              J10              CONDUIT            6.5    6.1465    0.0120
  Sol37            J19              J41              CONDUIT           15.5    1.2896    0.0300
  Sol38            J2               J20              CONDUIT            3.3    6.0718    0.0300
  Sol39            J20              J18              CONDUIT            3.6    2.7559    0.0130
  Sol44            J3               J24              CONDUIT            3.9   60.5794    0.0130
  Sol46            J24              J35              CONDUIT            7.7    1.2988    0.0130
  Sol57            J26              J29              CONDUIT            8.4    1.1906    0.0130
  Sol58            J31              J36              CONDUIT            8.9   23.6421    0.0130
  Sol60            J32              Exutório         CONDUIT            5.8    1.7185    0.0130
  Sol10            J9               J40              CONDUIT            7.1    0.7072    0.0130
  Sol64            J36              J35              CONDUIT           13.7    0.7321    0.0130
  Sol66            J35              SU1              CONDUIT            2.7    7.4836    0.0130
  Sol69            J10              J29              CONDUIT            7.5    1.3299    0.0130
  Sol70            J29              J13              CONDUIT            7.7    1.3056    0.0130
  Sol71            J37              J38              CONDUIT            5.2    0.3854    0.0130
  Sol72            J38              J39              CONDUIT            5.3    0.1880    0.0130
  Sol73            J39              J36              CONDUIT            8.0   39.9824    0.0130
  Sol65            J40              J10              CONDUIT            8.7    0.5747    0.0130
  Sol67            J41              J20              CONDUIT           18.4    0.5429    0.0130
  Or1              SU1              J9               ORIFICE     
  
  
  *********************
  Cross Section Summary
  *********************
                                        Full     Full     Hyd.     Max.   No. of     Full
  Conduit          Shape               Depth     Area     Rad.    Width  Barrels     Flow
  ---------------------------------------------------------------------------------------
  Sol1             RECT_OPEN            0.10     3.20     0.10    32.00        1  2537.44
  Sol7             RECT_OPEN            0.50     2.75     0.42     5.50        1 42344.25
  Sol8             RECT_OPEN            0.50     1.05     0.34     2.10        1 15354.55
  Sol9             RECT_OPEN            0.50     0.60     0.27     1.20        1 35101.76
  Sol26            RECT_OPEN            0.50     1.00     0.33     2.00        1  6649.18
  Sol27            CIRCULAR             0.50     0.20     0.12     0.50        1   809.19
  Sol28            RECT_OPEN            0.05     0.25     0.05     5.00        1   294.00
  Sol29            RECT_OPEN            0.10     0.16     0.09     1.60        1   834.12
  Sol31            RECT_OPEN            0.10     0.48     0.10     4.80        1  3714.92
  Sol32            RECT_OPEN            0.10     1.39     0.10    13.90        1  4247.43
  Sol33            RECT_OPEN            0.05     0.24     0.05     4.80        1   171.99
  Sol35            RECT_OPEN            0.05     0.25     0.05     5.00        1   691.85
  Sol37            RECT_OPEN            0.05     0.33     0.05     6.60        1   167.86
  Sol38            RECT_OPEN            0.05     0.33     0.05     6.60        1   364.22
  Sol39            RECT_OPEN            0.05     0.33     0.05     6.60        1   566.26
  Sol44            RECT_OPEN            0.50     0.50     0.25     1.00        1 11880.69
  Sol46            RECT_OPEN            0.10     0.01     0.04     0.12        1    11.79
  Sol57            RECT_OPEN            0.15     0.15     0.12     1.00        1   298.41
  Sol58            RECT_OPEN            0.50     2.80     0.42     5.60        1 59132.58
  Sol60            RECT_OPEN            0.05     0.24     0.05     4.80        1   324.00
  Sol10            RECT_OPEN            0.10     0.01     0.04     0.12        1     8.70
  Sol64            RECT_OPEN            0.10     0.01     0.04     0.12        1     8.85
  Sol66            CIRCULAR             0.20     0.03     0.05     0.20        1    89.73
  Sol69            RECT_OPEN            0.05     0.25     0.05     5.00        1   297.06
  Sol70            RECT_OPEN            0.05     0.25     0.05     5.00        1   294.33
  Sol71            PARABOLIC            0.12     0.01     0.03     0.10        1     3.67
  Sol72            PARABOLIC            0.12     0.01     0.03     0.10        1     2.56
  Sol73            PARABOLIC            0.12     0.01     0.03     0.10        1    37.37
  Sol65            RECT_OPEN            0.10     0.01     0.04     0.12        1     7.84
  Sol67            RECT_OPEN            0.05     0.33     0.05     6.60        1   251.33
  
  
  ****************
  Analysis Options
  ****************
  Flow Units ............... LPS
  Process Models:
    Rainfall/Runoff ........ YES
    RDII ................... NO
    Snowmelt ............... NO
    Groundwater ............ NO
    Flow Routing ........... YES
    Ponding Allowed ........ YES
    Water Quality .......... NO
  Infiltration Method ...... CURVE_NUMBER
  Flow Routing Method ...... DYNWAVE
  Surcharge Method ......... EXTRAN
  Starting Date ............ 09/28/2015 09:00:00
  Ending Date .............. 09/28/2015 12:00:00
  Antecedent Dry Days ...... 0.0
  Report Time Step ......... 00:00:30
  Wet Time Step ............ 00:00:10
  Dry Time Step ............ 01:00:00
  Routing Time Step ........ 5.00 sec
  Variable Time Step ....... YES
  Maximum Trials ........... 8
  Number of Threads ........ 1
  Head Tolerance ........... 0.001500 m
  
  
  *********************
  Control Actions Taken
  *********************

  
  **************************        Volume         Depth
  Runoff Quantity Continuity     hectare-m            mm
  **************************     ---------       -------
  Total Precipitation ......         0.003         7.535
  Evaporation Loss .........         0.000         0.000
  Infiltration Loss ........         0.001         4.113
  Surface Runoff ...........         0.001         2.594
  Final Storage ............         0.000         0.830
  Continuity Error (%) .....         0.000
  
  
  **************************        Volume        Volume
  Flow Routing Continuity        hectare-m      10^6 ltr
  **************************     ---------     ---------
  Dry Weather Inflow .......         0.000         0.000
  Wet Weather Inflow .......         0.001         0.009
  Groundwater Inflow .......         0.000         0.000
  RDII Inflow ..............         0.000         0.000
  External Inflow ..........         0.000         0.000
  External Outflow .........         0.001         0.008
  Flooding Loss ............         0.000         0.000
  Evaporation Loss .........         0.000         0.000
  Exfiltration Loss ........         0.000         0.000
  Initial Stored Volume ....         0.001         0.009
  Final Stored Volume ......         0.001         0.010
  Continuity Error (%) .....        -4.756
  
  
  *************************
  Highest Continuity Errors
  *************************
  Node J2 (34.03%)
  Node J40 (-14.98%)
  Node J26 (5.19%)
  Node J16 (3.55%)
  Node J9 (-3.16%)
  
  
  ***************************
  Time-Step Critical Elements
  ***************************
  Link Sol66 (53.63%)
  
  
  ********************************
  Highest Flow Instability Indexes
  ********************************
  Link Sol9 (5)
  Link Sol31 (2)
  Link Sol44 (2)
  Link Sol58 (1)
  
  
  *********************************
  Most Frequent Nonconverging Nodes
  *********************************
  Convergence obtained at all time steps.
  
  
  *************************
  Routing Time Step Summary
  *************************
  Minimum Time Step           :     0.12 sec
  Average Time Step           :     3.92 sec
  Maximum Time Step           :     5.00 sec
  % of Time in Steady State   :     0.00
  Average Iterations per Step :     2.00
  % of Steps Not Converging   :     0.00
  Time Step Frequencies       :
      5.000 -  3.155 sec      :    74.82 %
      3.155 -  1.991 sec      :     7.96 %
      1.991 -  1.256 sec      :     9.34 %
      1.256 -  0.792 sec      :     5.05 %
      0.792 -  0.500 sec      :     2.83 %
  
  
  ***************************
  Subcatchment Runoff Summary
  ***************************
  
  ------------------------------------------------------------------------------------------------------------------------------
                            Total      Total      Total      Total     Imperv       Perv      Total       Total     Peak  Runoff
                           Precip      Runon       Evap      Infil     Runoff     Runoff     Runoff      Runoff   Runoff   Coeff
  Subcatchment                 mm         mm         mm         mm         mm         mm         mm    10^6 ltr      LPS
  ------------------------------------------------------------------------------------------------------------------------------
  SB1                        7.54       0.00       0.00       6.24       0.00       0.04       0.04        0.00     0.65   0.005
  SB2                        7.53       0.00       0.00       6.24       0.00       0.04       0.04        0.00     0.12   0.005
  SB3                        7.53       0.00       0.00       0.00       7.55       0.00       7.55        0.00     6.31   1.001
  SB4                        7.54       0.00       0.00       0.00       7.55       0.00       7.55        0.00     2.51   1.002
  SB5                        7.54       0.00       0.00       0.00       7.53       0.00       7.53        0.00     5.13   1.000
  SB6                        7.54       0.00       0.00       0.00       7.55       0.00       7.55        0.00     2.45   1.002
  SB7                        7.53       0.00       0.00       0.00       7.55       0.00       7.55        0.00     1.10   1.002
  SB8                        7.53       0.00       0.00       0.00       7.55       0.00       7.55        0.00     0.41   1.002
  SB9                        7.53       0.00       0.00       0.00       7.53       0.00       7.53        0.00     7.06   0.999
  SB10                       7.53       0.00       0.00       0.00       7.54       0.00       7.54        0.00     2.85   1.000
  SB11                       7.54       0.00       0.00       0.00       7.55       0.00       7.55        0.00     2.28   1.001
  SB12                       7.53       0.00       0.00       0.00       7.53       0.00       7.53        0.00     2.55   1.000
  SB13                       7.53       0.00       0.00       0.00       7.53       0.00       7.53        0.00     3.27   1.000
  SB14                       7.54       0.00       0.00       0.00       7.55       0.00       7.55        0.00     0.53   1.002
  SB15                       7.53       0.00       0.00       0.00       7.54       0.00       7.54        0.00     5.87   1.001
  SB16                       7.53       0.00       0.00       6.24       0.00       0.02       0.02        0.00     0.26   0.003
  SB17                       7.53       0.00       0.00       0.00       7.52       0.00       7.52        0.00     4.69   0.998
  
  
  ******************
  Node Depth Summary
  ******************
  
  ---------------------------------------------------------------------------------
                                 Average  Maximum  Maximum  Time of Max    Reported
                                   Depth    Depth      HGL   Occurrence   Max Depth
  Node                 Type       Meters   Meters   Meters  days hr:min      Meters
  ---------------------------------------------------------------------------------
  J1                   JUNCTION     0.00     0.00    49.00     0  00:07        0.00
  J2                   JUNCTION     0.00     0.00    48.50     0  01:33        0.00
  J3                   JUNCTION     0.00     0.00    53.30     0  00:04        0.00
  J6                   JUNCTION     0.00     0.00    53.30     0  00:04        0.00
  J7                   JUNCTION     0.00     0.00    53.30     0  00:04        0.00
  J8                   JUNCTION     0.00     0.00    53.30     0  00:04        0.00
  J9                   JUNCTION     0.01     0.09    47.99     0  00:05        0.09
  J10                  JUNCTION     0.00     0.01    47.81     0  00:05        0.01
  J11                  JUNCTION     0.00     0.00    51.00     0  00:06        0.00
  J12                  JUNCTION     0.00     0.03    47.93     0  00:04        0.03
  J13                  JUNCTION     0.00     0.01    47.61     0  00:05        0.01
  J14                  JUNCTION     0.00     0.00    53.30     0  00:05        0.00
  J15                  JUNCTION     0.00     0.00    53.30     0  00:04        0.00
  J16                  JUNCTION     0.00     0.00    47.70     0  00:04        0.00
  J17                  JUNCTION     0.00     0.01    47.21     0  00:07        0.01
  J18                  JUNCTION     0.00     0.00    48.20     0  00:50        0.00
  J19                  JUNCTION     0.00     0.00    48.60     0  00:00        0.00
  J20                  JUNCTION     0.00     0.00    48.30     0  00:48        0.00
  J24                  JUNCTION     0.00     0.06    48.36     0  00:04        0.06
  J26                  JUNCTION     0.00     0.00    47.80     0  00:01        0.00
  J29                  JUNCTION     0.00     0.01    47.71     0  00:05        0.01
  J31                  JUNCTION     0.00     0.00    53.30     0  00:04        0.00
  J32                  JUNCTION     0.00     0.01    47.11     0  00:08        0.01
  J35                  JUNCTION     0.01     0.06    48.26     0  00:04        0.06
  J36                  JUNCTION     0.01     0.06    48.36     0  00:04        0.05
  J37                  JUNCTION     0.01     0.05    51.35     0  00:04        0.05
  J38                  JUNCTION     0.01     0.05    51.33     0  00:05        0.05
  J39                  JUNCTION     0.00     0.03    51.30     0  00:04        0.03
  J40                  JUNCTION     0.02     0.10    47.95     0  00:07        0.10
  J41                  JUNCTION     0.00     0.00    48.40     0  00:07        0.00
  Exutório             OUTFALL      0.00     0.01    47.01     0  00:08        0.01
  SU1                  STORAGE      7.87     8.10    48.10     0  00:05        8.10
  
  
  *******************
  Node Inflow Summary
  *******************
  
  -------------------------------------------------------------------------------------------------
                                  Maximum  Maximum                  Lateral       Total        Flow
                                  Lateral    Total  Time of Max      Inflow      Inflow     Balance
                                   Inflow   Inflow   Occurrence      Volume      Volume       Error
  Node                 Type           LPS      LPS  days hr:min    10^6 ltr    10^6 ltr     Percent
  -------------------------------------------------------------------------------------------------
  J1                   JUNCTION      0.65     0.65     0  00:06    4.82e-05    4.82e-05      -1.217
  J2                   JUNCTION      0.00     0.05     0  00:04           0    4.88e-05      51.586
  J3                   JUNCTION      6.31     6.31     0  00:04    0.000844    0.000844      -6.156
  J6                   JUNCTION      2.45     2.45     0  00:04    0.000316    0.000316      -8.553
  J7                   JUNCTION      1.10     1.10     0  00:04    0.000143    0.000143      -6.377
  J8                   JUNCTION      0.41     0.41     0  00:04    5.27e-05    5.27e-05     -40.937
  J9                   JUNCTION      0.00     7.60     0  00:05           0     0.00179      -3.067
  J10                  JUNCTION      2.85     7.97     0  00:05    0.000505     0.00441      -0.012
  J11                  JUNCTION      2.28     2.28     0  00:04    0.000301    0.000301      -1.905
  J12                  JUNCTION      2.55     2.87     0  00:04    0.000498    0.000805       0.131
  J13                  JUNCTION      3.27    12.13     0  00:04    0.000641     0.00594       0.075
  J14                  JUNCTION      0.53     0.53     0  00:04    6.78e-05    6.78e-05      -3.854
  J15                  JUNCTION      5.87     5.87     0  00:04    0.000799    0.000799     -16.975
  J16                  JUNCTION      0.26     8.42     0  00:01    1.97e-05     0.00105       3.680
  J17                  JUNCTION      4.69    18.80     0  00:05     0.00157     0.00853       0.487
  J18                  JUNCTION      0.00     0.05     0  00:10           0    4.07e-05       0.727
  J19                  JUNCTION      0.00     0.00     0  00:00           0           0       0.000 ltr
  J20                  JUNCTION      0.00     0.05     0  00:04           0    4.14e-05       1.675
  J24                  JUNCTION      0.00     6.28     0  00:04           0    0.000899       1.202
  J26                  JUNCTION      0.00     2.09     0  00:01           0    8.93e-05       5.470
  J29                  JUNCTION      0.00     7.86     0  00:05           0      0.0045      -0.017
  J31                  JUNCTION      2.51     2.51     0  00:04    0.000324    0.000324     -16.495
  J32                  JUNCTION      0.00    11.88     0  00:07           0     0.00849       0.094
  J35                  JUNCTION      5.13    15.33     0  00:04     0.00109     0.00284       0.177
  J36                  JUNCTION      0.00     5.00     0  00:01           0    0.000876       1.091
  J37                  JUNCTION      0.00     1.08     0  00:04           0    0.000153       1.853
  J38                  JUNCTION      0.00     0.72     0  00:04           0    0.000152       0.921
  J39                  JUNCTION      0.00     2.56     0  00:01           0    0.000497       1.262
  J40                  JUNCTION      7.06    12.69     0  00:05     0.00162     0.00345     -13.026
  J41                  JUNCTION      0.12     0.12     0  00:06    9.03e-06    9.03e-06      -0.187 ltr
  Exutório             OUTFALL       0.00    11.76     0  00:08           0     0.00848       0.000
  SU1                  STORAGE       0.00    15.69     0  00:04           0       0.012      -0.041
  
  
  **********************
  Node Surcharge Summary
  **********************
  
  Surcharging occurs when water rises above the top of the highest conduit.
  ---------------------------------------------------------------------
                                               Max. Height   Min. Depth
                                   Hours       Above Crown    Below Rim
  Node                 Type      Surcharged         Meters       Meters
  ---------------------------------------------------------------------
  J40                  JUNCTION        0.12          0.002        0.000
  
  
  *********************
  Node Flooding Summary
  *********************
  
  Flooding refers to all water that overflows a node, whether it ponds or not.
  --------------------------------------------------------------------------
                                                             Total   Maximum
                                 Maximum   Time of Max       Flood    Ponded
                        Hours       Rate    Occurrence      Volume     Depth
  Node                 Flooded       LPS   days hr:min    10^6 ltr    Meters
  --------------------------------------------------------------------------
  J40                     0.10      6.61      0  00:05       0.001     0.002
  
  
  **********************
  Storage Volume Summary
  **********************
  
  ------------------------------------------------------------------------------------------------
                         Average    Avg   Evap  Exfil     Maximum    Max    Time of Max    Maximum
                          Volume   Pcnt   Pcnt   Pcnt      Volume   Pcnt     Occurrence    Outflow
  Storage Unit           1000 mł   Full   Loss   Loss     1000 mł   Full    days hr:min        LPS
  ------------------------------------------------------------------------------------------------
  SU1                      0.010   96.0    0.0    0.0       0.011   98.8       0  00:05       7.60
  
  
  ***********************
  Outfall Loading Summary
  ***********************
  
  -----------------------------------------------------------
                         Flow       Avg       Max       Total
                         Freq      Flow      Flow      Volume
  Outfall Node           Pcnt       LPS       LPS    10^6 ltr
  -----------------------------------------------------------
  Exutório              70.84      2.09     11.76       0.008
  -----------------------------------------------------------
  System                70.84      2.09     11.76       0.008
  
  
  ********************
  Link Flow Summary
  ********************
  
  -----------------------------------------------------------------------------
                                 Maximum  Time of Max   Maximum    Max/    Max/
                                  |Flow|   Occurrence   |Veloc|    Full    Full
  Link                 Type          LPS  days hr:min     m/sec    Flow   Depth
  -----------------------------------------------------------------------------
  Sol1                 CONDUIT      0.05     0  00:04      0.00    0.00    0.00
  Sol7                 CONDUIT      2.56     0  00:01      0.00    0.00    0.00
  Sol8                 CONDUIT      1.08     0  00:04      0.00    0.00    0.00
  Sol9                 CONDUIT      2.09     0  00:01      0.00    0.00    0.00
  Sol26                CONDUIT      0.60     0  00:06      0.00    0.00    0.00
  Sol27                CONDUIT      2.81     0  00:04      1.34    0.00    0.03
  Sol28                CONDUIT     11.39     0  00:06      0.32    0.04    0.17
  Sol29                CONDUIT      0.42     0  00:01      0.00    0.00    0.01
  Sol31                CONDUIT      8.00     0  00:01      0.00    0.00    0.02
  Sol32                CONDUIT      4.29     0  00:04      0.10    0.00    0.06
  Sol33                CONDUIT     11.88     0  00:07      0.29    0.07    0.17
  Sol35                CONDUIT      0.01     0  00:50      0.00    0.00    0.06
  Sol37                CONDUIT      0.00     0  00:00      0.00    0.00    0.00
  Sol38                CONDUIT      0.05     0  00:04      0.00    0.00    0.00
  Sol39                CONDUIT      0.05     0  00:10      0.00    0.00    0.00
  Sol44                CONDUIT      6.28     0  00:04      1.48    0.00    0.01
  Sol46                CONDUIT      6.15     0  00:04      0.87    0.52    0.59
  Sol57                CONDUIT      0.47     0  00:01      0.13    0.00    0.02
  Sol58                CONDUIT      4.86     0  00:01      0.00    0.00    0.00
  Sol60                CONDUIT     11.76     0  00:08      0.36    0.04    0.14
  Sol10                CONDUIT      7.57     0  00:05      0.66    0.87    0.97
  Sol64                CONDUIT      4.30     0  00:04      0.63    0.49    0.57
  Sol66                CONDUIT     15.32     0  00:04      2.11    0.17    0.36
  Sol69                CONDUIT      7.70     0  00:05      0.29    0.03    0.11
  Sol70                CONDUIT      7.74     0  00:05      0.25    0.03    0.13
  Sol71                CONDUIT      0.72     0  00:04      0.52    0.20    0.38
  Sol72                CONDUIT      0.46     0  00:05      0.40    0.18    0.28
  Sol73                CONDUIT      2.20     0  00:04      1.43    0.06    0.36
  Sol65                CONDUIT      6.09     0  00:06      0.96    0.78    0.53
  Sol67                CONDUIT      0.00     0  00:04      0.00    0.00    0.00
  Or1                  ORIFICE      7.60     0  00:05                      1.00
  
  
  ***************************
  Flow Classification Summary
  ***************************
  
  -------------------------------------------------------------------------------------
                      Adjusted    ---------- Fraction of Time in Flow Class ---------- 
                       /Actual         Up    Down  Sub   Sup   Up    Down  Norm  Inlet 
  Conduit               Length    Dry  Dry   Dry   Crit  Crit  Crit  Crit  Ltd   Ctrl  
  -------------------------------------------------------------------------------------
  Sol1                    1.00   0.03  0.43  0.00  0.54  0.00  0.00  0.00  0.69  0.00
  Sol7                    1.00   0.92  0.00  0.00  0.00  0.00  0.00  0.08  0.00  0.00
  Sol8                    1.00   0.93  0.00  0.00  0.00  0.00  0.00  0.07  0.00  0.00
  Sol9                    1.00   0.96  0.00  0.00  0.00  0.00  0.00  0.04  0.00  0.00
  Sol26                   1.00   0.32  0.00  0.00  0.00  0.00  0.00  0.68  0.00  0.00
  Sol27                   1.00   0.01  0.00  0.00  0.41  0.58  0.00  0.00  0.36  0.00
  Sol28                   1.00   0.01  0.00  0.00  0.98  0.02  0.00  0.00  0.97  0.00
  Sol29                   1.00   0.78  0.00  0.00  0.00  0.00  0.00  0.22  0.00  0.00
  Sol31                   1.00   0.85  0.00  0.00  0.00  0.00  0.00  0.15  0.00  0.00
  Sol32                   1.00   0.01  0.43  0.00  0.55  0.02  0.00  0.00  0.98  0.00
  Sol33                   1.00   0.01  0.00  0.00  0.98  0.02  0.00  0.00  0.00  0.00
  Sol35                   1.00   0.01  0.08  0.00  0.91  0.00  0.00  0.00  0.94  0.00
  Sol37                   1.00   0.69  0.31  0.00  0.00  0.00  0.00  0.00  0.00  0.00
  Sol38                   1.00   0.06  0.04  0.00  0.90  0.00  0.00  0.00  0.17  0.00
  Sol39                   1.00   0.06  0.01  0.00  0.93  0.00  0.00  0.00  0.03  0.00
  Sol44                   1.00   0.85  0.00  0.00  0.00  0.00  0.00  0.15  0.00  0.00
  Sol46                   1.00   0.01  0.11  0.00  0.86  0.02  0.00  0.00  0.97  0.00
  Sol57                   1.00   0.01  0.81  0.00  0.17  0.01  0.00  0.00  0.98  0.00
  Sol58                   1.00   0.93  0.00  0.00  0.00  0.00  0.00  0.07  0.00  0.00
  Sol60                   1.00   0.02  0.00  0.00  0.79  0.19  0.00  0.00  0.00  0.00
  Sol10                   1.00   0.01  0.01  0.00  0.98  0.00  0.00  0.00  0.93  0.00
  Sol64                   1.00   0.01  0.00  0.00  0.99  0.00  0.00  0.00  0.98  0.00
  Sol66                   1.00   0.01  0.00  0.00  0.00  0.01  0.00  0.98  0.01  0.00
  Sol69                   1.00   0.01  0.00  0.00  0.93  0.06  0.00  0.00  0.88  0.00
  Sol70                   1.00   0.01  0.00  0.00  0.95  0.05  0.00  0.00  0.98  0.00
  Sol71                   1.00   0.01  0.00  0.00  0.98  0.02  0.00  0.00  0.97  0.00
  Sol72                   1.00   0.01  0.00  0.00  0.99  0.00  0.00  0.00  0.39  0.00
  Sol73                   1.00   0.01  0.00  0.00  0.66  0.33  0.00  0.00  0.07  0.00
  Sol65                   1.00   0.01  0.00  0.00  0.30  0.70  0.00  0.00  0.00  0.00
  Sol67                   1.00   0.04  0.65  0.00  0.31  0.00  0.00  0.00  0.78  0.00
  
  
  *************************
  Conduit Surcharge Summary
  *************************
  
  ----------------------------------------------------------------------------
                                                           Hours        Hours 
                         --------- Hours Full --------   Above Full   Capacity
  Conduit                Both Ends  Upstream  Dnstream   Normal Flow   Limited
  ----------------------------------------------------------------------------
  Sol10                       0.01      0.01      0.12      0.01         0.01
  Sol65                       0.01      0.12      0.01      0.01         0.01
  

  Analysis begun on:  Fri Mar  6 13:36:50 2026
  Analysis ended on:  Fri Mar  6 13:36:50 2026
  Total elapsed time: < 1 sec