
  EPA STORM WATER MANAGEMENT MODEL - VERSION 5.2 (Build 5.2.4)
  ------------------------------------------------------------

  
  ERROR 159: recording interval greater than time series interval for Rain Gage RG1.
  
  ERROR 159: recording interval greater than time series interval for Rain Gage RG10.
  
  ERROR 159: recording interval greater than time series interval for Rain Gage RG11.
  
  ERROR 159: recording interval greater than time series interval for Rain Gage RG12.
  
  ERROR 159: recording interval greater than time series interval for Rain Gage RG13.
  
  ERROR 159: recording interval greater than time series interval for Rain Gage RG14.
  
  ERROR 159: recording interval greater than time series interval for Rain Gage RG2.
  
  ERROR 159: recording interval greater than time series interval for Rain Gage RG3.
  
  ERROR 159: recording interval greater than time series interval for Rain Gage RG4.
  
  ERROR 159: recording interval greater than time series interval for Rain Gage RG5.
  
  ERROR 159: recording interval greater than time series interval for Rain Gage RG6.
  
  ERROR 159: recording interval greater than time series interval for Rain Gage RG7.
  
  ERROR 159: recording interval greater than time series interval for Rain Gage RG8.
  
  ERROR 159: recording interval greater than time series interval for Rain Gage RG9.
  WARNING 02: maximum depth increased for Node N428
  WARNING 02: maximum depth increased for Node N432
  WARNING 02: maximum depth increased for Node N433

  Analysis begun on:  Fri Mar  6 13:37:04 2026
  Analysis ended on:  Fri Mar  6 13:37:04 2026
  Total elapsed time: < 1 sec