
  EPA STORM WATER MANAGEMENT MODEL - VERSION 5.2 (Build 5.2.4)
  ------------------------------------------------------------

  WARNING 04: minimum elevation drop used for Conduit 0987MH173-0987MH172
  WARNING 04: minimum elevation drop used for Conduit 0988MH001-0988MH218
  WARNING 05: minimum slope used for Conduit 0988MH001-0988MH218
  WARNING 04: minimum elevation drop used for Conduit 1063MH011-1062MH007
  WARNING 05: minimum slope used for Conduit 1063MH011-1062MH007
  WARNING 04: minimum elevation drop used for Conduit 1170MH021-1170MH023
  WARNING 05: minimum slope used for Conduit 1170MH021-1170MH023
  WARNING 04: minimum elevation drop used for Conduit CDT-47_2
  WARNING 05: minimum slope used for Conduit CDT-47_2
  WARNING 05: minimum slope used for Conduit CDT-55
  WARNING 04: minimum elevation drop used for Conduit S500255
  WARNING 04: minimum elevation drop used for Conduit S500262
  WARNING 04: minimum elevation drop used for Conduit S500271
  WARNING 04: minimum elevation drop used for Conduit S500772
  WARNING 04: minimum elevation drop used for Conduit S500773
  WARNING 04: minimum elevation drop used for Conduit S500774
  WARNING 04: minimum elevation drop used for Conduit S500775
  WARNING 04: minimum elevation drop used for Conduit S500776
  WARNING 04: minimum elevation drop used for Conduit S500786
  WARNING 05: minimum slope used for Conduit S500786
  WARNING 04: minimum elevation drop used for Conduit S500789
  WARNING 05: minimum slope used for Conduit S500789
  WARNING 04: minimum elevation drop used for Conduit S500795_11
  WARNING 04: minimum elevation drop used for Conduit S500795_2
  WARNING 04: minimum elevation drop used for Conduit S500795_3
  WARNING 04: minimum elevation drop used for Conduit S500795_4
  WARNING 05: minimum slope used for Conduit S500795_4
  WARNING 04: minimum elevation drop used for Conduit S500795_5
  WARNING 05: minimum slope used for Conduit S500795_5
  WARNING 04: minimum elevation drop used for Conduit S500795_6
  WARNING 05: minimum slope used for Conduit S500795_6
  WARNING 04: minimum elevation drop used for Conduit S500795_7
  WARNING 04: minimum elevation drop used for Conduit S500795_8
  WARNING 04: minimum elevation drop used for Conduit S500795_9
  WARNING 04: minimum elevation drop used for Conduit S500797
  WARNING 04: minimum elevation drop used for Conduit S500804
  WARNING 04: minimum elevation drop used for Conduit S500808
  WARNING 04: minimum elevation drop used for Conduit S500810_1
  WARNING 04: minimum elevation drop used for Conduit S500810_10
  WARNING 04: minimum elevation drop used for Conduit S500810_12
  WARNING 05: minimum slope used for Conduit S500810_12
  WARNING 04: minimum elevation drop used for Conduit S500810_4
  WARNING 04: minimum elevation drop used for Conduit S500810_5
  WARNING 04: minimum elevation drop used for Conduit S500810_6
  WARNING 04: minimum elevation drop used for Conduit S500811
  WARNING 04: minimum elevation drop used for Conduit S500813_1
  WARNING 04: minimum elevation drop used for Conduit S500813_13
  WARNING 04: minimum elevation drop used for Conduit S500813_15
  WARNING 05: minimum slope used for Conduit S500813_15
  WARNING 04: minimum elevation drop used for Conduit S500813_16
  WARNING 04: minimum elevation drop used for Conduit S500813_2
  WARNING 05: minimum slope used for Conduit S500813_2
  WARNING 04: minimum elevation drop used for Conduit S500813_5
  WARNING 04: minimum elevation drop used for Conduit S500813_7
  WARNING 05: minimum slope used for Conduit S500813_7
  WARNING 04: minimum elevation drop used for Conduit S500826
  WARNING 04: minimum elevation drop used for Conduit S500827
  WARNING 04: minimum elevation drop used for Conduit S500829_1
  WARNING 04: minimum elevation drop used for Conduit S500831_1
  WARNING 04: minimum elevation drop used for Conduit S500831_2
  WARNING 04: minimum elevation drop used for Conduit S500831_3
  WARNING 04: minimum elevation drop used for Conduit S500831_4
  WARNING 04: minimum elevation drop used for Conduit S500832
  WARNING 04: minimum elevation drop used for Conduit S500839
  WARNING 04: minimum elevation drop used for Conduit S500840
  WARNING 04: minimum elevation drop used for Conduit S500849
  WARNING 04: minimum elevation drop used for Conduit S500856
  WARNING 05: minimum slope used for Conduit S500856
  WARNING 04: minimum elevation drop used for Conduit S500859_1
  WARNING 05: minimum slope used for Conduit S500859_1
  WARNING 04: minimum elevation drop used for Conduit S500859_14
  WARNING 04: minimum elevation drop used for Conduit S500859_15
  WARNING 05: minimum slope used for Conduit S500859_15
  WARNING 04: minimum elevation drop used for Conduit S500859_16
  WARNING 04: minimum elevation drop used for Conduit S500859_17
  WARNING 04: minimum elevation drop used for Conduit S500875
  WARNING 04: minimum elevation drop used for Conduit S500885
  WARNING 04: minimum elevation drop used for Conduit S500886
  WARNING 04: minimum elevation drop used for Conduit S500889
  WARNING 04: minimum elevation drop used for Conduit S500898_1
  WARNING 05: minimum slope used for Conduit S500898_1
  WARNING 03: negative offset ignored for Link S500898_2
  WARNING 04: minimum elevation drop used for Conduit S500901
  WARNING 04: minimum elevation drop used for Conduit S500902_1
  WARNING 04: minimum elevation drop used for Conduit S500902_6
  WARNING 05: minimum slope used for Conduit S500902_6
  WARNING 04: minimum elevation drop used for Conduit S500906
  WARNING 04: minimum elevation drop used for Conduit S500921
  WARNING 04: minimum elevation drop used for Conduit S500923
  WARNING 04: minimum elevation drop used for Conduit S500924
  WARNING 04: minimum elevation drop used for Conduit S500925
  WARNING 04: minimum elevation drop used for Conduit S500928
  WARNING 04: minimum elevation drop used for Conduit S500930
  WARNING 04: minimum elevation drop used for Conduit S500936
  WARNING 04: minimum elevation drop used for Conduit S500943
  WARNING 04: minimum elevation drop used for Conduit S500950_5
  WARNING 04: minimum elevation drop used for Conduit S500968_1
  WARNING 04: minimum elevation drop used for Conduit S500968_2
  WARNING 04: minimum elevation drop used for Conduit S500968_3
  WARNING 04: minimum elevation drop used for Conduit S500968_5
  WARNING 04: minimum elevation drop used for Conduit S500985_11
  WARNING 04: minimum elevation drop used for Conduit S500985_3
  WARNING 05: minimum slope used for Conduit S500985_3
  WARNING 04: minimum elevation drop used for Conduit S500985_4
  WARNING 04: minimum elevation drop used for Conduit S500985_7
  WARNING 04: minimum elevation drop used for Conduit S500985_9
  WARNING 04: minimum elevation drop used for Conduit S500987
  WARNING 04: minimum elevation drop used for Conduit S500990
  WARNING 04: minimum elevation drop used for Conduit S500991
  WARNING 04: minimum elevation drop used for Conduit S500992
  WARNING 04: minimum elevation drop used for Conduit S501013
  WARNING 04: minimum elevation drop used for Conduit S501023_14
  WARNING 05: minimum slope used for Conduit S501023_14
  WARNING 04: minimum elevation drop used for Conduit S501023_17
  WARNING 05: minimum slope used for Conduit S501023_17
  WARNING 04: minimum elevation drop used for Conduit S501025
  WARNING 04: minimum elevation drop used for Conduit S501027
  WARNING 04: minimum elevation drop used for Conduit S501028_11
  WARNING 04: minimum elevation drop used for Conduit S501028_12
  WARNING 04: minimum elevation drop used for Conduit S501028_13
  WARNING 05: minimum slope used for Conduit S501028_13
  WARNING 04: minimum elevation drop used for Conduit S501028_16
  WARNING 05: minimum slope used for Conduit S501028_16
  WARNING 04: minimum elevation drop used for Conduit S501028_18
  WARNING 04: minimum elevation drop used for Conduit S501028_2
  WARNING 05: minimum slope used for Conduit S501028_2
  WARNING 04: minimum elevation drop used for Conduit S501028_3
  WARNING 05: minimum slope used for Conduit S501028_3
  WARNING 04: minimum elevation drop used for Conduit S501028_4
  WARNING 05: minimum slope used for Conduit S501028_4
  WARNING 04: minimum elevation drop used for Conduit S501028_5
  WARNING 04: minimum elevation drop used for Conduit S501028_7
  WARNING 04: minimum elevation drop used for Conduit S501028_8
  WARNING 04: minimum elevation drop used for Conduit S501028_9
  WARNING 04: minimum elevation drop used for Conduit S501031
  WARNING 04: minimum elevation drop used for Conduit S501032_1
  WARNING 05: minimum slope used for Conduit S501032_1
  WARNING 04: minimum elevation drop used for Conduit S501032_2
  WARNING 04: minimum elevation drop used for Conduit S501032_3
  WARNING 04: minimum elevation drop used for Conduit S501032_4
  WARNING 04: minimum elevation drop used for Conduit S501032_6
  WARNING 04: minimum elevation drop used for Conduit S501033_1
  WARNING 05: minimum slope used for Conduit S501033_1
  WARNING 04: minimum elevation drop used for Conduit S501033_2
  WARNING 04: minimum elevation drop used for Conduit S501034
  WARNING 04: minimum elevation drop used for Conduit S501035
  WARNING 04: minimum elevation drop used for Conduit S501036_4
  WARNING 05: minimum slope used for Conduit S501036_4
  WARNING 04: minimum elevation drop used for Conduit S501036_6
  WARNING 04: minimum elevation drop used for Conduit S501038_1
  WARNING 04: minimum elevation drop used for Conduit S501039
  WARNING 04: minimum elevation drop used for Conduit S501041_1
  WARNING 04: minimum elevation drop used for Conduit S501041_2
  WARNING 04: minimum elevation drop used for Conduit S501041_3
  WARNING 04: minimum elevation drop used for Conduit S501041_4
  WARNING 05: minimum slope used for Conduit S501041_4
  WARNING 04: minimum elevation drop used for Conduit S501041_5
  WARNING 04: minimum elevation drop used for Conduit S501047
  WARNING 04: minimum elevation drop used for Conduit S501051
  WARNING 04: minimum elevation drop used for Conduit S501052_2
  WARNING 05: minimum slope used for Conduit S501052_2
  WARNING 04: minimum elevation drop used for Conduit S501055_17
  WARNING 04: minimum elevation drop used for Conduit S501055_3
  WARNING 04: minimum elevation drop used for Conduit S501072
  WARNING 04: minimum elevation drop used for Conduit S501077_1
  WARNING 05: minimum slope used for Conduit S501077_1
  WARNING 03: negative offset ignored for Link S501077_3
  WARNING 04: minimum elevation drop used for Conduit S501089_1
  WARNING 04: minimum elevation drop used for Conduit S501089_2
  WARNING 04: minimum elevation drop used for Conduit S501089_3
  WARNING 05: minimum slope used for Conduit S501089_3
  WARNING 04: minimum elevation drop used for Conduit S501089_4
  WARNING 05: minimum slope used for Conduit S501089_4
  WARNING 04: minimum elevation drop used for Conduit S501089_5
  WARNING 04: minimum elevation drop used for Conduit S502128
  WARNING 04: minimum elevation drop used for Conduit S502129
  WARNING 04: minimum elevation drop used for Conduit S502130
  WARNING 04: minimum elevation drop used for Conduit S502131
  WARNING 04: minimum elevation drop used for Conduit S502135_1
  WARNING 04: minimum elevation drop used for Conduit S502135_2
  WARNING 04: minimum elevation drop used for Conduit S502135_4
  WARNING 04: minimum elevation drop used for Conduit S502137
  WARNING 04: minimum elevation drop used for Conduit S502138
  WARNING 05: minimum slope used for Conduit S502138
  WARNING 04: minimum elevation drop used for Conduit S502164
  WARNING 04: minimum elevation drop used for Conduit S502165_1
  WARNING 05: minimum slope used for Conduit S502165_1
  WARNING 04: minimum elevation drop used for Conduit S502165_2
  WARNING 04: minimum elevation drop used for Conduit S502170
  WARNING 04: minimum elevation drop used for Conduit S502172
  WARNING 04: minimum elevation drop used for Conduit S502175_11
  WARNING 04: minimum elevation drop used for Conduit S502175_14
  WARNING 04: minimum elevation drop used for Conduit S502175_2
  WARNING 04: minimum elevation drop used for Conduit S502175_9
  WARNING 04: minimum elevation drop used for Conduit S502177_1
  WARNING 04: minimum elevation drop used for Conduit S502177_10
  WARNING 05: minimum slope used for Conduit S502177_10
  WARNING 04: minimum elevation drop used for Conduit S502177_17
  WARNING 04: minimum elevation drop used for Conduit S502177_19
  WARNING 04: minimum elevation drop used for Conduit S502177_20
  WARNING 04: minimum elevation drop used for Conduit S502177_22
  WARNING 04: minimum elevation drop used for Conduit S502177_24
  WARNING 05: minimum slope used for Conduit S502177_24
  WARNING 04: minimum elevation drop used for Conduit S502177_4
  WARNING 04: minimum elevation drop used for Conduit S502177_6
  WARNING 05: minimum slope used for Conduit S502177_6
  WARNING 04: minimum elevation drop used for Conduit S502177_7
  WARNING 04: minimum elevation drop used for Conduit S502177_8
  WARNING 04: minimum elevation drop used for Conduit S502177_9
  WARNING 04: minimum elevation drop used for Conduit S502180
  WARNING 05: minimum slope used for Conduit S502180
  WARNING 04: minimum elevation drop used for Conduit S502181
  WARNING 05: minimum slope used for Conduit S502181
  WARNING 04: minimum elevation drop used for Conduit S502185
  WARNING 04: minimum elevation drop used for Conduit S502193
  WARNING 04: minimum elevation drop used for Conduit S502201
  WARNING 04: minimum elevation drop used for Conduit S502209
  WARNING 04: minimum elevation drop used for Conduit S502217
  WARNING 04: minimum elevation drop used for Conduit S502219
  WARNING 04: minimum elevation drop used for Conduit S502227_2
  WARNING 05: minimum slope used for Conduit S502227_2
  WARNING 04: minimum elevation drop used for Conduit S502227_4
  WARNING 04: minimum elevation drop used for Conduit S502227_7
  WARNING 04: minimum elevation drop used for Conduit S502227_8
  WARNING 05: minimum slope used for Conduit S502227_8
  WARNING 04: minimum elevation drop used for Conduit S502235
  WARNING 04: minimum elevation drop used for Conduit S502236
  WARNING 04: minimum elevation drop used for Conduit S502238_3
  WARNING 05: minimum slope used for Conduit S502238_3
  WARNING 04: minimum elevation drop used for Conduit S502238_4
  WARNING 04: minimum elevation drop used for Conduit S502238_5
  WARNING 05: minimum slope used for Conduit S502238_5
  WARNING 04: minimum elevation drop used for Conduit S502238_8
  WARNING 04: minimum elevation drop used for Conduit S502238_9
  WARNING 04: minimum elevation drop used for Conduit S502250
  WARNING 04: minimum elevation drop used for Conduit S502252
  WARNING 04: minimum elevation drop used for Conduit S502254_1
  WARNING 04: minimum elevation drop used for Conduit S502254_3
  WARNING 04: minimum elevation drop used for Conduit S502261
  WARNING 05: minimum slope used for Conduit S502261
  WARNING 04: minimum elevation drop used for Conduit S502262
  WARNING 04: minimum elevation drop used for Conduit S502269
  WARNING 05: minimum slope used for Conduit S502269
  WARNING 04: minimum elevation drop used for Conduit S502270
  WARNING 04: minimum elevation drop used for Conduit S502279
  WARNING 04: minimum elevation drop used for Conduit S502282
  WARNING 04: minimum elevation drop used for Conduit S502283_4
  WARNING 04: minimum elevation drop used for Conduit S502283_9
  WARNING 05: minimum slope used for Conduit S502283_9
  WARNING 04: minimum elevation drop used for Conduit S502287
  WARNING 04: minimum elevation drop used for Conduit S502288
  WARNING 04: minimum elevation drop used for Conduit S502290
  WARNING 04: minimum elevation drop used for Conduit S502291
  WARNING 04: minimum elevation drop used for Conduit S502292
  WARNING 04: minimum elevation drop used for Conduit S502293
  WARNING 04: minimum elevation drop used for Conduit S502294_1
  WARNING 04: minimum elevation drop used for Conduit S502294_2
  WARNING 04: minimum elevation drop used for Conduit S502294_3
  WARNING 04: minimum elevation drop used for Conduit S502299
  WARNING 04: minimum elevation drop used for Conduit S502300
  WARNING 04: minimum elevation drop used for Conduit S502315_1
  WARNING 04: minimum elevation drop used for Conduit S502315_2
  WARNING 05: minimum slope used for Conduit S502315_2
  WARNING 04: minimum elevation drop used for Conduit S502315_3
  WARNING 05: minimum slope used for Conduit S502315_3
  WARNING 04: minimum elevation drop used for Conduit S502326
  WARNING 04: minimum elevation drop used for Conduit S502328
  WARNING 04: minimum elevation drop used for Conduit S502330_2
  WARNING 04: minimum elevation drop used for Conduit S502330_3
  WARNING 05: minimum slope used for Conduit S502330_3
  WARNING 04: minimum elevation drop used for Conduit S502330_5
  WARNING 05: minimum slope used for Conduit S502330_5
  WARNING 04: minimum elevation drop used for Conduit S502334_1
  WARNING 04: minimum elevation drop used for Conduit S502334_2
  WARNING 05: minimum slope used for Conduit S502334_2
  WARNING 04: minimum elevation drop used for Conduit S502334_3
  WARNING 05: minimum slope used for Conduit S502334_3
  WARNING 04: minimum elevation drop used for Conduit S502334_4
  WARNING 04: minimum elevation drop used for Conduit S502334_5
  WARNING 04: minimum elevation drop used for Conduit S502335_10
  WARNING 04: minimum elevation drop used for Conduit S502335_12
  WARNING 04: minimum elevation drop used for Conduit S502335_13
  WARNING 05: minimum slope used for Conduit S502335_13
  WARNING 04: minimum elevation drop used for Conduit S502335_14
  WARNING 05: minimum slope used for Conduit S502335_14
  WARNING 04: minimum elevation drop used for Conduit S502335_15
  WARNING 04: minimum elevation drop used for Conduit S502335_16
  WARNING 04: minimum elevation drop used for Conduit S502335_17
  WARNING 04: minimum elevation drop used for Conduit S502335_18
  WARNING 04: minimum elevation drop used for Conduit S502335_19
  WARNING 04: minimum elevation drop used for Conduit S502335_3
  WARNING 05: minimum slope used for Conduit S502335_3
  WARNING 04: minimum elevation drop used for Conduit S502335_5
  WARNING 04: minimum elevation drop used for Conduit S502335_7
  WARNING 04: minimum elevation drop used for Conduit S502335_9
  WARNING 04: minimum elevation drop used for Conduit S502337_1
  WARNING 05: minimum slope used for Conduit S502337_1
  WARNING 04: minimum elevation drop used for Conduit S502339
  WARNING 04: minimum elevation drop used for Conduit S502357_1
  WARNING 04: minimum elevation drop used for Conduit S502360_2
  WARNING 05: minimum slope used for Conduit S502360_2
  WARNING 04: minimum elevation drop used for Conduit S502364_4
  WARNING 04: minimum elevation drop used for Conduit S502371
  WARNING 04: minimum elevation drop used for Conduit S502372_1
  WARNING 05: minimum slope used for Conduit S502372_1
  WARNING 04: minimum elevation drop used for Conduit S502372_4
  WARNING 05: minimum slope used for Conduit S502372_4
  WARNING 04: minimum elevation drop used for Conduit S502372_5
  WARNING 05: minimum slope used for Conduit S502372_5
  WARNING 04: minimum elevation drop used for Conduit S502373
  WARNING 04: minimum elevation drop used for Conduit S502377_1
  WARNING 04: minimum elevation drop used for Conduit S502377_2
  WARNING 04: minimum elevation drop used for Conduit S502377_3
  WARNING 04: minimum elevation drop used for Conduit S502379
  WARNING 04: minimum elevation drop used for Conduit S502381_1
  WARNING 04: minimum elevation drop used for Conduit S502381_2
  WARNING 05: minimum slope used for Conduit S502381_2
  WARNING 04: minimum elevation drop used for Conduit S502382_6
  WARNING 04: minimum elevation drop used for Conduit S502383_11
  WARNING 04: minimum elevation drop used for Conduit S502384
  WARNING 04: minimum elevation drop used for Conduit S502387_2
  WARNING 04: minimum elevation drop used for Conduit S502387_3
  WARNING 05: minimum slope used for Conduit S502387_3
  WARNING 04: minimum elevation drop used for Conduit S502387_4
  WARNING 04: minimum elevation drop used for Conduit S502387_5
  WARNING 05: minimum slope used for Conduit S502387_5
  WARNING 04: minimum elevation drop used for Conduit S502387_6
  WARNING 04: minimum elevation drop used for Conduit S502387_7
  WARNING 04: minimum elevation drop used for Conduit S502387_8
  WARNING 05: minimum slope used for Conduit S502387_8
  WARNING 04: minimum elevation drop used for Conduit S502387_9
  WARNING 04: minimum elevation drop used for Conduit S502392_1
  WARNING 04: minimum elevation drop used for Conduit S502395_11
  WARNING 04: minimum elevation drop used for Conduit S502395_16
  WARNING 05: minimum slope used for Conduit S502395_16
  WARNING 04: minimum elevation drop used for Conduit S502395_17
  WARNING 05: minimum slope used for Conduit S502395_17
  WARNING 04: minimum elevation drop used for Conduit S502395_18
  WARNING 04: minimum elevation drop used for Conduit S502395_5
  WARNING 05: minimum slope used for Conduit S502395_5
  WARNING 04: minimum elevation drop used for Conduit S502395_6
  WARNING 04: minimum elevation drop used for Conduit S502395_7
  WARNING 04: minimum elevation drop used for Conduit S502395_8
  WARNING 05: minimum slope used for Conduit S502395_8
  WARNING 04: minimum elevation drop used for Conduit S502410
  WARNING 04: minimum elevation drop used for Conduit S502416
  WARNING 05: minimum slope used for Conduit S502416
  WARNING 04: minimum elevation drop used for Conduit S502419
  WARNING 04: minimum elevation drop used for Conduit S502420_1
  WARNING 04: minimum elevation drop used for Conduit S502420_2
  WARNING 04: minimum elevation drop used for Conduit S502421_1
  WARNING 04: minimum elevation drop used for Conduit S502421_2
  WARNING 04: minimum elevation drop used for Conduit S502425_1
  WARNING 05: minimum slope used for Conduit S502425_1
  WARNING 04: minimum elevation drop used for Conduit S502425_2
  WARNING 04: minimum elevation drop used for Conduit S502425_3
  WARNING 05: minimum slope used for Conduit S502425_3
  WARNING 04: minimum elevation drop used for Conduit S502425_4
  WARNING 04: minimum elevation drop used for Conduit S502425_5
  WARNING 04: minimum elevation drop used for Conduit S502425_7
  WARNING 04: minimum elevation drop used for Conduit S502425_8
  WARNING 04: minimum elevation drop used for Conduit S502425_9
  WARNING 04: minimum elevation drop used for Conduit S502436
  WARNING 04: minimum elevation drop used for Conduit S502437
  WARNING 04: minimum elevation drop used for Conduit S502438
  WARNING 04: minimum elevation drop used for Conduit S502444_2
  WARNING 04: minimum elevation drop used for Conduit S502444_21
  WARNING 05: minimum slope used for Conduit S502444_21
  WARNING 04: minimum elevation drop used for Conduit S502444_4
  WARNING 04: minimum elevation drop used for Conduit S502444_9
  WARNING 05: minimum slope used for Conduit S502444_9
  WARNING 04: minimum elevation drop used for Conduit S502449
  WARNING 04: minimum elevation drop used for Conduit S502451
  WARNING 04: minimum elevation drop used for Conduit S502454
  WARNING 04: minimum elevation drop used for Conduit S502458_1
  WARNING 04: minimum elevation drop used for Conduit S502458_2
  WARNING 05: minimum slope used for Conduit S502458_2
  WARNING 04: minimum elevation drop used for Conduit S502460
  WARNING 04: minimum elevation drop used for Conduit S502461
  WARNING 05: minimum slope used for Conduit S502461
  WARNING 04: minimum elevation drop used for Conduit S502475
  WARNING 04: minimum elevation drop used for Conduit S502478
  WARNING 05: minimum slope used for Conduit S502478
  WARNING 04: minimum elevation drop used for Conduit S502488
  WARNING 04: minimum elevation drop used for Conduit S502491
  WARNING 04: minimum elevation drop used for Conduit S502506
  WARNING 04: minimum elevation drop used for Conduit S502516
  WARNING 04: minimum elevation drop used for Conduit S502517
  WARNING 04: minimum elevation drop used for Conduit S502518_10
  WARNING 04: minimum elevation drop used for Conduit S502518_11
  WARNING 05: minimum slope used for Conduit S502518_11
  WARNING 04: minimum elevation drop used for Conduit S502518_12
  WARNING 04: minimum elevation drop used for Conduit S502518_13
  WARNING 04: minimum elevation drop used for Conduit S502518_2
  WARNING 04: minimum elevation drop used for Conduit S502518_3
  WARNING 05: minimum slope used for Conduit S502518_3
  WARNING 04: minimum elevation drop used for Conduit S502518_4
  WARNING 05: minimum slope used for Conduit S502518_4
  WARNING 04: minimum elevation drop used for Conduit S502518_6
  WARNING 04: minimum elevation drop used for Conduit S502518_7
  WARNING 04: minimum elevation drop used for Conduit S502518_9
  WARNING 05: minimum slope used for Conduit S502518_9
  WARNING 04: minimum elevation drop used for Conduit S502535
  WARNING 04: minimum elevation drop used for Conduit S502545_1
  WARNING 04: minimum elevation drop used for Conduit S502545_3
  WARNING 04: minimum elevation drop used for Conduit S502545_5
  WARNING 04: minimum elevation drop used for Conduit S502549
  WARNING 04: minimum elevation drop used for Conduit S502553_13
  WARNING 04: minimum elevation drop used for Conduit S502553_15
  WARNING 04: minimum elevation drop used for Conduit S502553_17
  WARNING 04: minimum elevation drop used for Conduit S502553_19
  WARNING 04: minimum elevation drop used for Conduit S502553_20
  WARNING 05: minimum slope used for Conduit S502553_20
  WARNING 04: minimum elevation drop used for Conduit S502553_22
  WARNING 04: minimum elevation drop used for Conduit S502553_24
  WARNING 04: minimum elevation drop used for Conduit S502553_25
  WARNING 04: minimum elevation drop used for Conduit S502553_26
  WARNING 04: minimum elevation drop used for Conduit S502553_27
  WARNING 04: minimum elevation drop used for Conduit S502553_28
  WARNING 05: minimum slope used for Conduit S502553_28
  WARNING 04: minimum elevation drop used for Conduit S502553_3
  WARNING 04: minimum elevation drop used for Conduit S502553_31
  WARNING 04: minimum elevation drop used for Conduit S502553_36
  WARNING 05: minimum slope used for Conduit S502553_36
  WARNING 04: minimum elevation drop used for Conduit S502553_37
  WARNING 04: minimum elevation drop used for Conduit S502553_4
  WARNING 04: minimum elevation drop used for Conduit S502553_7
  WARNING 04: minimum elevation drop used for Conduit S502553_9
  WARNING 05: minimum slope used for Conduit S502553_9
  WARNING 04: minimum elevation drop used for Conduit S502558
  WARNING 04: minimum elevation drop used for Conduit S502560
  WARNING 04: minimum elevation drop used for Conduit S502565
  WARNING 04: minimum elevation drop used for Conduit S502573_1
  WARNING 04: minimum elevation drop used for Conduit S502578_1
  WARNING 05: minimum slope used for Conduit S502578_1
  WARNING 04: minimum elevation drop used for Conduit S502578_3
  WARNING 04: minimum elevation drop used for Conduit S502579
  WARNING 04: minimum elevation drop used for Conduit S502581
  WARNING 04: minimum elevation drop used for Conduit S502586
  WARNING 05: minimum slope used for Conduit S502586
  WARNING 04: minimum elevation drop used for Conduit S502593_1
  WARNING 05: minimum slope used for Conduit S502593_1
  WARNING 04: minimum elevation drop used for Conduit S502593_10
  WARNING 04: minimum elevation drop used for Conduit S502593_2
  WARNING 04: minimum elevation drop used for Conduit S502593_9
  WARNING 04: minimum elevation drop used for Conduit S502603
  WARNING 04: minimum elevation drop used for Conduit S502604
  WARNING 04: minimum elevation drop used for Conduit S502605_1
  WARNING 05: minimum slope used for Conduit S502605_1
  WARNING 04: minimum elevation drop used for Conduit S502605_13
  WARNING 04: minimum elevation drop used for Conduit S502605_14
  WARNING 05: minimum slope used for Conduit S502605_15
  WARNING 04: minimum elevation drop used for Conduit S502605_16
  WARNING 04: minimum elevation drop used for Conduit S502605_17
  WARNING 04: minimum elevation drop used for Conduit S502605_18
  WARNING 04: minimum elevation drop used for Conduit S502605_19
  WARNING 05: minimum slope used for Conduit S502605_19
  WARNING 04: minimum elevation drop used for Conduit S502605_2
  WARNING 04: minimum elevation drop used for Conduit S502605_21
  WARNING 05: minimum slope used for Conduit S502605_21
  WARNING 04: minimum elevation drop used for Conduit S502605_22
  WARNING 05: minimum slope used for Conduit S502605_22
  WARNING 04: minimum elevation drop used for Conduit S502605_3
  WARNING 04: minimum elevation drop used for Conduit S502605_4
  WARNING 04: minimum elevation drop used for Conduit S502605_5
  WARNING 05: minimum slope used for Conduit S502605_5
  WARNING 04: minimum elevation drop used for Conduit S502605_7
  WARNING 05: minimum slope used for Conduit S502605_7
  WARNING 04: minimum elevation drop used for Conduit S502606
  WARNING 04: minimum elevation drop used for Conduit S502613
  WARNING 04: minimum elevation drop used for Conduit S502614_1
  WARNING 04: minimum elevation drop used for Conduit S502614_2
  WARNING 05: minimum slope used for Conduit S502614_2
  WARNING 04: minimum elevation drop used for Conduit S502615
  WARNING 05: minimum slope used for Conduit S502615
  WARNING 04: minimum elevation drop used for Conduit S502621
  WARNING 04: minimum elevation drop used for Conduit S502622
  WARNING 05: minimum slope used for Conduit S502622
  WARNING 04: minimum elevation drop used for Conduit S502623_4
  WARNING 05: minimum slope used for Conduit S502623_4
  WARNING 04: minimum elevation drop used for Conduit S502624
  WARNING 04: minimum elevation drop used for Conduit S502632_10
  WARNING 04: minimum elevation drop used for Conduit S502633_1
  WARNING 05: minimum slope used for Conduit S502633_1
  WARNING 04: minimum elevation drop used for Conduit S502633_2
  WARNING 05: minimum slope used for Conduit S502633_2
  WARNING 04: minimum elevation drop used for Conduit S502633_3
  WARNING 05: minimum slope used for Conduit S502633_3
  WARNING 04: minimum elevation drop used for Conduit S502633_4
  WARNING 05: minimum slope used for Conduit S502633_4
  WARNING 04: minimum elevation drop used for Conduit S502633_5
  WARNING 05: minimum slope used for Conduit S502633_5
  WARNING 04: minimum elevation drop used for Conduit S502633_9
  WARNING 05: minimum slope used for Conduit S502633_9
  WARNING 04: minimum elevation drop used for Conduit S502645
  WARNING 04: minimum elevation drop used for Conduit S502650_1
  WARNING 05: minimum slope used for Conduit S502650_1
  WARNING 04: minimum elevation drop used for Conduit S502650_10
  WARNING 04: minimum elevation drop used for Conduit S502650_11
  WARNING 05: minimum slope used for Conduit S502650_11
  WARNING 04: minimum elevation drop used for Conduit S502650_12
  WARNING 04: minimum elevation drop used for Conduit S502650_2
  WARNING 05: minimum slope used for Conduit S502650_2
  WARNING 04: minimum elevation drop used for Conduit S502650_3
  WARNING 04: minimum elevation drop used for Conduit S502650_4
  WARNING 04: minimum elevation drop used for Conduit S502650_5
  WARNING 04: minimum elevation drop used for Conduit S502650_6
  WARNING 04: minimum elevation drop used for Conduit S502650_7
  WARNING 04: minimum elevation drop used for Conduit S502650_8
  WARNING 04: minimum elevation drop used for Conduit S502650_9
  WARNING 04: minimum elevation drop used for Conduit S502651
  WARNING 04: minimum elevation drop used for Conduit S502653
  WARNING 04: minimum elevation drop used for Conduit S502658
  WARNING 04: minimum elevation drop used for Conduit S502659
  WARNING 04: minimum elevation drop used for Conduit S502662_1
  WARNING 04: minimum elevation drop used for Conduit S502662_5
  WARNING 04: minimum elevation drop used for Conduit S502662_7
  WARNING 04: minimum elevation drop used for Conduit S502664
  WARNING 04: minimum elevation drop used for Conduit S502666
  WARNING 04: minimum elevation drop used for Conduit S502674
  WARNING 04: minimum elevation drop used for Conduit S502682
  WARNING 04: minimum elevation drop used for Conduit S502686
  WARNING 04: minimum elevation drop used for Conduit S502687
  WARNING 04: minimum elevation drop used for Conduit S502689
  WARNING 04: minimum elevation drop used for Conduit S502696
  WARNING 05: minimum slope used for Conduit S502696
  WARNING 04: minimum elevation drop used for Conduit S502699
  WARNING 04: minimum elevation drop used for Conduit S502710
  WARNING 04: minimum elevation drop used for Conduit S502716
  WARNING 04: minimum elevation drop used for Conduit S502723
  WARNING 04: minimum elevation drop used for Conduit S502726
  WARNING 04: minimum elevation drop used for Conduit S502732
  WARNING 04: minimum elevation drop used for Conduit S502734_10
  WARNING 05: minimum slope used for Conduit S502734_10
  WARNING 04: minimum elevation drop used for Conduit S502734_11
  WARNING 05: minimum slope used for Conduit S502734_11
  WARNING 04: minimum elevation drop used for Conduit S502734_12
  WARNING 05: minimum slope used for Conduit S502734_12
  WARNING 04: minimum elevation drop used for Conduit S502734_4
  WARNING 04: minimum elevation drop used for Conduit S502734_8
  WARNING 05: minimum slope used for Conduit S502734_8
  WARNING 04: minimum elevation drop used for Conduit S502744_1
  WARNING 05: minimum slope used for Conduit S502744_1
  WARNING 04: minimum elevation drop used for Conduit S502744_2
  WARNING 05: minimum slope used for Conduit S502744_2
  WARNING 04: minimum elevation drop used for Conduit S502747
  WARNING 04: minimum elevation drop used for Conduit S502748
  WARNING 04: minimum elevation drop used for Conduit S502754
  WARNING 04: minimum elevation drop used for Conduit S502765
  WARNING 04: minimum elevation drop used for Conduit S502766
  WARNING 04: minimum elevation drop used for Conduit S502784
  WARNING 04: minimum elevation drop used for Conduit S502792
  WARNING 04: minimum elevation drop used for Conduit S502793
  WARNING 04: minimum elevation drop used for Conduit S502794
  WARNING 04: minimum elevation drop used for Conduit S502795
  WARNING 04: minimum elevation drop used for Conduit S502796_1
  WARNING 04: minimum elevation drop used for Conduit S502796_2
  WARNING 05: minimum slope used for Conduit S502796_2
  WARNING 04: minimum elevation drop used for Conduit S502796_3
  WARNING 05: minimum slope used for Conduit S502796_3
  WARNING 04: minimum elevation drop used for Conduit S502796_4
  WARNING 04: minimum elevation drop used for Conduit S502796_5
  WARNING 04: minimum elevation drop used for Conduit S502796_6
  WARNING 05: minimum slope used for Conduit S502796_6
  WARNING 04: minimum elevation drop used for Conduit S502801
  WARNING 04: minimum elevation drop used for Conduit S502811
  WARNING 04: minimum elevation drop used for Conduit S502812
  WARNING 04: minimum elevation drop used for Conduit S502822
  WARNING 04: minimum elevation drop used for Conduit S502832
  WARNING 04: minimum elevation drop used for Conduit S502842
  WARNING 04: minimum elevation drop used for Conduit S502843_2
  WARNING 05: minimum slope used for Conduit S502843_2
  WARNING 04: minimum elevation drop used for Conduit S502843_3
  WARNING 04: minimum elevation drop used for Conduit S502843_5
  WARNING 04: minimum elevation drop used for Conduit S502848
  WARNING 04: minimum elevation drop used for Conduit S502849
  WARNING 04: minimum elevation drop used for Conduit S502851
  WARNING 04: minimum elevation drop used for Conduit S502852
  WARNING 05: minimum slope used for Conduit S502852
  WARNING 04: minimum elevation drop used for Conduit S502856
  WARNING 04: minimum elevation drop used for Conduit S502858
  WARNING 04: minimum elevation drop used for Conduit S502859
  WARNING 04: minimum elevation drop used for Conduit S502861_1
  WARNING 04: minimum elevation drop used for Conduit S502861_2
  WARNING 04: minimum elevation drop used for Conduit S502862
  WARNING 04: minimum elevation drop used for Conduit S502863
  WARNING 04: minimum elevation drop used for Conduit S502873
  WARNING 04: minimum elevation drop used for Conduit S502874
  WARNING 04: minimum elevation drop used for Conduit S502883_3
  WARNING 05: minimum slope used for Conduit S502883_3
  WARNING 04: minimum elevation drop used for Conduit S502886
  WARNING 04: minimum elevation drop used for Conduit S502891
  WARNING 04: minimum elevation drop used for Conduit S502892_1
  WARNING 04: minimum elevation drop used for Conduit S502892_2
  WARNING 04: minimum elevation drop used for Conduit S502893_14
  WARNING 04: minimum elevation drop used for Conduit S502893_2
  WARNING 05: minimum slope used for Conduit S502893_2
  WARNING 04: minimum elevation drop used for Conduit S502893_3
  WARNING 05: minimum slope used for Conduit S502893_3
  WARNING 04: minimum elevation drop used for Conduit S502893_4
  WARNING 05: minimum slope used for Conduit S502893_4
  WARNING 04: minimum elevation drop used for Conduit S502896_10
  WARNING 04: minimum elevation drop used for Conduit S502896_11
  WARNING 04: minimum elevation drop used for Conduit S502896_2
  WARNING 04: minimum elevation drop used for Conduit S502896_3
  WARNING 04: minimum elevation drop used for Conduit S502896_5
  WARNING 04: minimum elevation drop used for Conduit S502897_1
  WARNING 05: minimum slope used for Conduit S502897_1
  WARNING 04: minimum elevation drop used for Conduit S502897_2
  WARNING 04: minimum elevation drop used for Conduit S502897_3
  WARNING 04: minimum elevation drop used for Conduit S502903
  WARNING 04: minimum elevation drop used for Conduit S502905
  WARNING 04: minimum elevation drop used for Conduit S502906_1
  WARNING 04: minimum elevation drop used for Conduit S502915
  WARNING 04: minimum elevation drop used for Conduit S502921_1
  WARNING 05: minimum slope used for Conduit S502921_1
  WARNING 04: minimum elevation drop used for Conduit S502926
  WARNING 04: minimum elevation drop used for Conduit S502927
  WARNING 04: minimum elevation drop used for Conduit S502934
  WARNING 04: minimum elevation drop used for Conduit S502936
  WARNING 04: minimum elevation drop used for Conduit S502937
  WARNING 04: minimum elevation drop used for Conduit S502954_10
  WARNING 04: minimum elevation drop used for Conduit S502966_14
  WARNING 05: minimum slope used for Conduit S502966_14
  WARNING 04: minimum elevation drop used for Conduit S502967
  WARNING 04: minimum elevation drop used for Conduit S502972
  WARNING 05: minimum slope used for Conduit S502972
  WARNING 04: minimum elevation drop used for Conduit S502975
  WARNING 04: minimum elevation drop used for Conduit S502977
  WARNING 04: minimum elevation drop used for Conduit S502980
  WARNING 04: minimum elevation drop used for Conduit S502981
  WARNING 04: minimum elevation drop used for Conduit S502987
  WARNING 04: minimum elevation drop used for Conduit S502990
  WARNING 04: minimum elevation drop used for Conduit S503004
  WARNING 04: minimum elevation drop used for Conduit S503022
  WARNING 04: minimum elevation drop used for Conduit S503038
  WARNING 04: minimum elevation drop used for Conduit S503047
  WARNING 04: minimum elevation drop used for Conduit S503059
  WARNING 04: minimum elevation drop used for Conduit S503062
  WARNING 04: minimum elevation drop used for Conduit S503063_1
  WARNING 04: minimum elevation drop used for Conduit S503063_2
  WARNING 04: minimum elevation drop used for Conduit S503063_3
  WARNING 05: minimum slope used for Conduit S503063_3
  WARNING 04: minimum elevation drop used for Conduit S503063_4
  WARNING 04: minimum elevation drop used for Conduit S503064
  WARNING 04: minimum elevation drop used for Conduit S503067_1
  WARNING 04: minimum elevation drop used for Conduit S503071
  WARNING 04: minimum elevation drop used for Conduit S503074
  WARNING 04: minimum elevation drop used for Conduit S503087
  WARNING 04: minimum elevation drop used for Conduit S503088_1
  WARNING 04: minimum elevation drop used for Conduit S503088_3
  WARNING 04: minimum elevation drop used for Conduit S503088_4
  WARNING 05: minimum slope used for Conduit S503088_4
  WARNING 04: minimum elevation drop used for Conduit S503089
  WARNING 04: minimum elevation drop used for Conduit S503090
  WARNING 05: minimum slope used for Conduit S503090
  WARNING 04: minimum elevation drop used for Conduit S503097
  WARNING 04: minimum elevation drop used for Conduit S503101
  WARNING 04: minimum elevation drop used for Conduit S503103
  WARNING 04: minimum elevation drop used for Conduit S503104
  WARNING 04: minimum elevation drop used for Conduit S503108
  WARNING 04: minimum elevation drop used for Conduit S503109_11
  WARNING 05: minimum slope used for Conduit S503109_11
  WARNING 04: minimum elevation drop used for Conduit S503109_14
  WARNING 04: minimum elevation drop used for Conduit S503109_6
  WARNING 04: minimum elevation drop used for Conduit S503109_8
  WARNING 04: minimum elevation drop used for Conduit S503113
  WARNING 04: minimum elevation drop used for Conduit S503114_1
  WARNING 05: minimum slope used for Conduit S503114_1
  WARNING 04: minimum elevation drop used for Conduit S503114_2
  WARNING 05: minimum slope used for Conduit S503114_2
  WARNING 04: minimum elevation drop used for Conduit S503116
  WARNING 04: minimum elevation drop used for Conduit S503117
  WARNING 04: minimum elevation drop used for Conduit S503120_1
  WARNING 04: minimum elevation drop used for Conduit S503120_2
  WARNING 05: minimum slope used for Conduit S503120_2
  WARNING 04: minimum elevation drop used for Conduit S503120_3
  WARNING 04: minimum elevation drop used for Conduit S503120_7
  WARNING 05: minimum slope used for Conduit S503120_7
  WARNING 04: minimum elevation drop used for Conduit S503121_1
  WARNING 04: minimum elevation drop used for Conduit S503121_2
  WARNING 04: minimum elevation drop used for Conduit S503121_3
  WARNING 04: minimum elevation drop used for Conduit S503121_4
  WARNING 05: minimum slope used for Conduit S503121_4
  WARNING 04: minimum elevation drop used for Conduit S503121_5
  WARNING 04: minimum elevation drop used for Conduit S503160_1
  WARNING 04: minimum elevation drop used for Conduit S503160_10
  WARNING 04: minimum elevation drop used for Conduit S503160_11
  WARNING 05: minimum slope used for Conduit S503160_11
  WARNING 04: minimum elevation drop used for Conduit S503160_12
  WARNING 04: minimum elevation drop used for Conduit S503160_2
  WARNING 04: minimum elevation drop used for Conduit S503160_3
  WARNING 04: minimum elevation drop used for Conduit S503160_4
  WARNING 05: minimum slope used for Conduit S503160_4
  WARNING 04: minimum elevation drop used for Conduit S503160_5
  WARNING 04: minimum elevation drop used for Conduit S503160_6
  WARNING 04: minimum elevation drop used for Conduit S503160_7
  WARNING 04: minimum elevation drop used for Conduit S503160_8
  WARNING 05: minimum slope used for Conduit S503160_8
  WARNING 04: minimum elevation drop used for Conduit S503160_9
  WARNING 04: minimum elevation drop used for Conduit S503165
  WARNING 04: minimum elevation drop used for Conduit S503170_1
  WARNING 04: minimum elevation drop used for Conduit S503170_2
  WARNING 04: minimum elevation drop used for Conduit S503170_3
  WARNING 04: minimum elevation drop used for Conduit S503170_4
  WARNING 04: minimum elevation drop used for Conduit S503170_5
  WARNING 04: minimum elevation drop used for Conduit S503170_6
  WARNING 04: minimum elevation drop used for Conduit S503170_7
  WARNING 04: minimum elevation drop used for Conduit S503173_1
  WARNING 05: minimum slope used for Conduit S503173_1
  WARNING 04: minimum elevation drop used for Conduit S503174_6
  WARNING 05: minimum slope used for Conduit S503174_6
  WARNING 04: minimum elevation drop used for Conduit S503177
  WARNING 05: minimum slope used for Conduit S503177
  WARNING 04: minimum elevation drop used for Conduit S503205
  WARNING 04: minimum elevation drop used for Conduit S503213
  WARNING 04: minimum elevation drop used for Conduit S503230
  WARNING 04: minimum elevation drop used for Conduit S503231
  WARNING 04: minimum elevation drop used for Conduit S503236
  WARNING 04: minimum elevation drop used for Conduit S503252_1
  WARNING 04: minimum elevation drop used for Conduit S503252_2
  WARNING 05: minimum slope used for Conduit S503252_2
  WARNING 04: minimum elevation drop used for Conduit S503261_1
  WARNING 04: minimum elevation drop used for Conduit S503261_6
  WARNING 05: minimum slope used for Conduit S503261_6
  WARNING 04: minimum elevation drop used for Conduit S503261_8
  WARNING 04: minimum elevation drop used for Conduit S503262_1
  WARNING 05: minimum slope used for Conduit S503262_1
  WARNING 04: minimum elevation drop used for Conduit S503262_2
  WARNING 05: minimum slope used for Conduit S503262_2
  WARNING 04: minimum elevation drop used for Conduit S503262_3
  WARNING 05: minimum slope used for Conduit S503262_3
  WARNING 04: minimum elevation drop used for Conduit S503262_4
  WARNING 05: minimum slope used for Conduit S503262_4
  WARNING 04: minimum elevation drop used for Conduit S503262_5
  WARNING 05: minimum slope used for Conduit S503262_5
  WARNING 04: minimum elevation drop used for Conduit S503262_6
  WARNING 04: minimum elevation drop used for Conduit S503262_7
  WARNING 04: minimum elevation drop used for Conduit S503262_8
  WARNING 05: minimum slope used for Conduit S503262_8
  WARNING 04: minimum elevation drop used for Conduit S503267
  WARNING 04: minimum elevation drop used for Conduit S503272
  WARNING 05: minimum slope used for Conduit S503272
  WARNING 04: minimum elevation drop used for Conduit S503284
  WARNING 04: minimum elevation drop used for Conduit S503293
  WARNING 04: minimum elevation drop used for Conduit S503295
  WARNING 04: minimum elevation drop used for Conduit S503300
  WARNING 05: minimum slope used for Conduit S503300
  WARNING 04: minimum elevation drop used for Conduit S503303
  WARNING 04: minimum elevation drop used for Conduit S503310
  WARNING 04: minimum elevation drop used for Conduit S503311
  WARNING 04: minimum elevation drop used for Conduit S503312
  WARNING 04: minimum elevation drop used for Conduit S503318
  WARNING 04: minimum elevation drop used for Conduit S503323
  WARNING 04: minimum elevation drop used for Conduit S503328
  WARNING 04: minimum elevation drop used for Conduit S503336
  WARNING 04: minimum elevation drop used for Conduit S503339
  WARNING 04: minimum elevation drop used for Conduit S503340_2
  WARNING 05: minimum slope used for Conduit S503340_2
  WARNING 04: minimum elevation drop used for Conduit S503367
  WARNING 04: minimum elevation drop used for Conduit S503369
  WARNING 04: minimum elevation drop used for Conduit S503372_1
  WARNING 04: minimum elevation drop used for Conduit S503373
  WARNING 04: minimum elevation drop used for Conduit S503382
  WARNING 04: minimum elevation drop used for Conduit S503383
  WARNING 04: minimum elevation drop used for Conduit S503390
  WARNING 04: minimum elevation drop used for Conduit S503399
  WARNING 04: minimum elevation drop used for Conduit S503405
  WARNING 05: minimum slope used for Conduit S503405
  WARNING 04: minimum elevation drop used for Conduit S503406
  WARNING 04: minimum elevation drop used for Conduit S503413
  WARNING 04: minimum elevation drop used for Conduit S503414
  WARNING 04: minimum elevation drop used for Conduit S503415
  WARNING 04: minimum elevation drop used for Conduit S503420
  WARNING 04: minimum elevation drop used for Conduit S503421
  WARNING 04: minimum elevation drop used for Conduit S503423
  WARNING 04: minimum elevation drop used for Conduit S503424
  WARNING 04: minimum elevation drop used for Conduit S503426
  WARNING 04: minimum elevation drop used for Conduit S503429
  WARNING 05: minimum slope used for Conduit S503429
  WARNING 04: minimum elevation drop used for Conduit S503437_1
  WARNING 04: minimum elevation drop used for Conduit S503437_2
  WARNING 05: minimum slope used for Conduit S503437_2
  WARNING 04: minimum elevation drop used for Conduit S503438
  WARNING 04: minimum elevation drop used for Conduit S503439
  WARNING 04: minimum elevation drop used for Conduit S503440
  WARNING 04: minimum elevation drop used for Conduit S503465
  WARNING 04: minimum elevation drop used for Conduit S503471
  WARNING 04: minimum elevation drop used for Conduit S503473
  WARNING 04: minimum elevation drop used for Conduit S503491
  WARNING 04: minimum elevation drop used for Conduit S503494
  WARNING 04: minimum elevation drop used for Conduit S503509
  WARNING 04: minimum elevation drop used for Conduit S503515
  WARNING 04: minimum elevation drop used for Conduit S503535
  WARNING 04: minimum elevation drop used for Conduit S503536
  WARNING 04: minimum elevation drop used for Conduit S503539
  WARNING 04: minimum elevation drop used for Conduit S503544
  WARNING 04: minimum elevation drop used for Conduit S503546
  WARNING 04: minimum elevation drop used for Conduit S503550
  WARNING 04: minimum elevation drop used for Conduit S503553
  WARNING 04: minimum elevation drop used for Conduit S503559
  WARNING 04: minimum elevation drop used for Conduit S503561
  WARNING 05: minimum slope used for Conduit S503561
  WARNING 04: minimum elevation drop used for Conduit S503565
  WARNING 04: minimum elevation drop used for Conduit S503566
  WARNING 04: minimum elevation drop used for Conduit S503572
  WARNING 04: minimum elevation drop used for Conduit S503573
  WARNING 04: minimum elevation drop used for Conduit S503580
  WARNING 04: minimum elevation drop used for Conduit S503581
  WARNING 04: minimum elevation drop used for Conduit S503582
  WARNING 04: minimum elevation drop used for Conduit S503588_10
  WARNING 05: minimum slope used for Conduit S503588_10
  WARNING 04: minimum elevation drop used for Conduit S503588_11
  WARNING 04: minimum elevation drop used for Conduit S503588_13
  WARNING 04: minimum elevation drop used for Conduit S503588_14
  WARNING 04: minimum elevation drop used for Conduit S503588_15
  WARNING 05: minimum slope used for Conduit S503588_15
  WARNING 04: minimum elevation drop used for Conduit S503588_17
  WARNING 05: minimum slope used for Conduit S503588_17
  WARNING 04: minimum elevation drop used for Conduit S503588_2
  WARNING 05: minimum slope used for Conduit S503588_2
  WARNING 04: minimum elevation drop used for Conduit S503588_21
  WARNING 04: minimum elevation drop used for Conduit S503588_3
  WARNING 05: minimum slope used for Conduit S503588_3
  WARNING 04: minimum elevation drop used for Conduit S503588_4
  WARNING 04: minimum elevation drop used for Conduit S503588_5
  WARNING 05: minimum slope used for Conduit S503588_5
  WARNING 04: minimum elevation drop used for Conduit S503588_6
  WARNING 04: minimum elevation drop used for Conduit S503588_8
  WARNING 04: minimum elevation drop used for Conduit S503588_9
  WARNING 04: minimum elevation drop used for Conduit S503589_4
  WARNING 05: minimum slope used for Conduit S503589_4
  WARNING 04: minimum elevation drop used for Conduit S503589_5
  WARNING 05: minimum slope used for Conduit S503589_5
  WARNING 04: minimum elevation drop used for Conduit S503590
  WARNING 04: minimum elevation drop used for Conduit S503601
  WARNING 04: minimum elevation drop used for Conduit S503602
  WARNING 04: minimum elevation drop used for Conduit S503608
  WARNING 04: minimum elevation drop used for Conduit S503610
  WARNING 04: minimum elevation drop used for Conduit S503615
  WARNING 04: minimum elevation drop used for Conduit S503622
  WARNING 04: minimum elevation drop used for Conduit S503624
  WARNING 04: minimum elevation drop used for Conduit S503631
  WARNING 04: minimum elevation drop used for Conduit S503633
  WARNING 04: minimum elevation drop used for Conduit S503636
  WARNING 04: minimum elevation drop used for Conduit S503639_1
  WARNING 04: minimum elevation drop used for Conduit S503639_5
  WARNING 04: minimum elevation drop used for Conduit S503641_2
  WARNING 04: minimum elevation drop used for Conduit S503641_3
  WARNING 04: minimum elevation drop used for Conduit S503641_4
  WARNING 04: minimum elevation drop used for Conduit S503641_5
  WARNING 04: minimum elevation drop used for Conduit S503641_6
  WARNING 04: minimum elevation drop used for Conduit S503648
  WARNING 04: minimum elevation drop used for Conduit S503657
  WARNING 04: minimum elevation drop used for Conduit S503658
  WARNING 04: minimum elevation drop used for Conduit S503660_1
  WARNING 04: minimum elevation drop used for Conduit S503660_5
  WARNING 04: minimum elevation drop used for Conduit S503688
  WARNING 04: minimum elevation drop used for Conduit S503689
  WARNING 04: minimum elevation drop used for Conduit S503692_1
  WARNING 04: minimum elevation drop used for Conduit S503692_10
  WARNING 04: minimum elevation drop used for Conduit S503692_11
  WARNING 04: minimum elevation drop used for Conduit S503692_12
  WARNING 04: minimum elevation drop used for Conduit S503692_13
  WARNING 04: minimum elevation drop used for Conduit S503692_14
  WARNING 04: minimum elevation drop used for Conduit S503692_15
  WARNING 04: minimum elevation drop used for Conduit S503692_17
  WARNING 05: minimum slope used for Conduit S503692_17
  WARNING 04: minimum elevation drop used for Conduit S503692_18
  WARNING 04: minimum elevation drop used for Conduit S503692_2
  WARNING 04: minimum elevation drop used for Conduit S503692_3
  WARNING 05: minimum slope used for Conduit S503692_3
  WARNING 04: minimum elevation drop used for Conduit S503692_4
  WARNING 05: minimum slope used for Conduit S503692_4
  WARNING 04: minimum elevation drop used for Conduit S503692_5
  WARNING 05: minimum slope used for Conduit S503692_5
  WARNING 04: minimum elevation drop used for Conduit S503692_6
  WARNING 04: minimum elevation drop used for Conduit S503692_8
  WARNING 05: minimum slope used for Conduit S503692_8
  WARNING 04: minimum elevation drop used for Conduit S503692_9
  WARNING 05: minimum slope used for Conduit S503692_9
  WARNING 04: minimum elevation drop used for Conduit S503701
  WARNING 04: minimum elevation drop used for Conduit S503731_11
  WARNING 05: minimum slope used for Conduit S503731_11
  WARNING 04: minimum elevation drop used for Conduit S503731_13
  WARNING 05: minimum slope used for Conduit S503731_13
  WARNING 04: minimum elevation drop used for Conduit S503731_3
  WARNING 05: minimum slope used for Conduit S503731_3
  WARNING 04: minimum elevation drop used for Conduit S503731_5
  WARNING 04: minimum elevation drop used for Conduit S503731_6
  WARNING 04: minimum elevation drop used for Conduit S503731_7
  WARNING 05: minimum slope used for Conduit S503731_7
  WARNING 04: minimum elevation drop used for Conduit S503731_9
  WARNING 04: minimum elevation drop used for Conduit S503733
  WARNING 04: minimum elevation drop used for Conduit S503739
  WARNING 04: minimum elevation drop used for Conduit S503747
  WARNING 04: minimum elevation drop used for Conduit S503749
  WARNING 04: minimum elevation drop used for Conduit S503755
  WARNING 04: minimum elevation drop used for Conduit S503756_1
  WARNING 04: minimum elevation drop used for Conduit S503762
  WARNING 04: minimum elevation drop used for Conduit S503768_1
  WARNING 05: minimum slope used for Conduit S503768_1
  WARNING 04: minimum elevation drop used for Conduit S503768_2
  WARNING 04: minimum elevation drop used for Conduit S503768_4
  WARNING 04: minimum elevation drop used for Conduit S503768_5
  WARNING 05: minimum slope used for Conduit S503768_5
  WARNING 04: minimum elevation drop used for Conduit S503782_10
  WARNING 04: minimum elevation drop used for Conduit S503782_11
  WARNING 05: minimum slope used for Conduit S503782_11
  WARNING 04: minimum elevation drop used for Conduit S503782_12
  WARNING 05: minimum slope used for Conduit S503782_12
  WARNING 04: minimum elevation drop used for Conduit S503782_3
  WARNING 05: minimum slope used for Conduit S503782_3
  WARNING 04: minimum elevation drop used for Conduit S503782_4
  WARNING 04: minimum elevation drop used for Conduit S503782_6
  WARNING 04: minimum elevation drop used for Conduit S503782_7
  WARNING 05: minimum slope used for Conduit S503782_7
  WARNING 04: minimum elevation drop used for Conduit S503783
  WARNING 04: minimum elevation drop used for Conduit S503785
  WARNING 04: minimum elevation drop used for Conduit S503786
  WARNING 04: minimum elevation drop used for Conduit S503788
  WARNING 04: minimum elevation drop used for Conduit S503789
  WARNING 05: minimum slope used for Conduit S503789
  WARNING 04: minimum elevation drop used for Conduit S503790
  WARNING 04: minimum elevation drop used for Conduit S503791_2
  WARNING 05: minimum slope used for Conduit S503791_2
  WARNING 04: minimum elevation drop used for Conduit S503791_3
  WARNING 05: minimum slope used for Conduit S503791_3
  WARNING 04: minimum elevation drop used for Conduit S503791_4
  WARNING 04: minimum elevation drop used for Conduit S503793
  WARNING 04: minimum elevation drop used for Conduit S503800
  WARNING 04: minimum elevation drop used for Conduit S503809
  WARNING 04: minimum elevation drop used for Conduit S503810
  WARNING 04: minimum elevation drop used for Conduit S503822
  WARNING 04: minimum elevation drop used for Conduit S503827_1
  WARNING 05: minimum slope used for Conduit S503827_1
  WARNING 04: minimum elevation drop used for Conduit S503827_10
  WARNING 04: minimum elevation drop used for Conduit S503827_11
  WARNING 05: minimum slope used for Conduit S503827_11
  WARNING 04: minimum elevation drop used for Conduit S503827_12
  WARNING 04: minimum elevation drop used for Conduit S503827_13
  WARNING 04: minimum elevation drop used for Conduit S503827_2
  WARNING 04: minimum elevation drop used for Conduit S503827_3
  WARNING 05: minimum slope used for Conduit S503827_3
  WARNING 04: minimum elevation drop used for Conduit S503827_4
  WARNING 04: minimum elevation drop used for Conduit S503827_5
  WARNING 04: minimum elevation drop used for Conduit S503827_6
  WARNING 04: minimum elevation drop used for Conduit S503827_7
  WARNING 04: minimum elevation drop used for Conduit S503827_8
  WARNING 05: minimum slope used for Conduit S503827_8
  WARNING 04: minimum elevation drop used for Conduit S503827_9
  WARNING 05: minimum slope used for Conduit S503827_9
  WARNING 04: minimum elevation drop used for Conduit S503828
  WARNING 04: minimum elevation drop used for Conduit S503835
  WARNING 04: minimum elevation drop used for Conduit S503836
  WARNING 04: minimum elevation drop used for Conduit S503837
  WARNING 04: minimum elevation drop used for Conduit S503844
  WARNING 04: minimum elevation drop used for Conduit S503846
  WARNING 04: minimum elevation drop used for Conduit S503847
  WARNING 04: minimum elevation drop used for Conduit S503854
  WARNING 04: minimum elevation drop used for Conduit S503858_1
  WARNING 05: minimum slope used for Conduit S503858_1
  WARNING 04: minimum elevation drop used for Conduit S503858_2
  WARNING 05: minimum slope used for Conduit S503858_2
  WARNING 04: minimum elevation drop used for Conduit S503858_3
  WARNING 04: minimum elevation drop used for Conduit S503858_4
  WARNING 04: minimum elevation drop used for Conduit S503858_5
  WARNING 04: minimum elevation drop used for Conduit S503866
  WARNING 04: minimum elevation drop used for Conduit S503867
  WARNING 04: minimum elevation drop used for Conduit S503871
  WARNING 04: minimum elevation drop used for Conduit S503872
  WARNING 05: minimum slope used for Conduit S503872
  WARNING 04: minimum elevation drop used for Conduit S503873_1
  WARNING 04: minimum elevation drop used for Conduit S503873_5
  WARNING 05: minimum slope used for Conduit S503873_5
  WARNING 04: minimum elevation drop used for Conduit S503873_8
  WARNING 04: minimum elevation drop used for Conduit S503885
  WARNING 04: minimum elevation drop used for Conduit S503890_1
  WARNING 04: minimum elevation drop used for Conduit S503892
  WARNING 04: minimum elevation drop used for Conduit S503901
  WARNING 04: minimum elevation drop used for Conduit S503903
  WARNING 04: minimum elevation drop used for Conduit S503904
  WARNING 04: minimum elevation drop used for Conduit S503905_1
  WARNING 04: minimum elevation drop used for Conduit S503905_2
  WARNING 05: minimum slope used for Conduit S503905_2
  WARNING 04: minimum elevation drop used for Conduit S503905_3
  WARNING 04: minimum elevation drop used for Conduit S503909
  WARNING 04: minimum elevation drop used for Conduit S503910
  WARNING 04: minimum elevation drop used for Conduit S503911_3
  WARNING 04: minimum elevation drop used for Conduit S503911_5
  WARNING 05: minimum slope used for Conduit S503911_5
  WARNING 04: minimum elevation drop used for Conduit S503911_6
  WARNING 04: minimum elevation drop used for Conduit S503914
  WARNING 04: minimum elevation drop used for Conduit S503933
  WARNING 05: minimum slope used for Conduit S503933
  WARNING 04: minimum elevation drop used for Conduit S503946
  WARNING 05: minimum slope used for Conduit S503946
  WARNING 04: minimum elevation drop used for Conduit S503950
  WARNING 04: minimum elevation drop used for Conduit S503957
  WARNING 04: minimum elevation drop used for Conduit S503962
  WARNING 04: minimum elevation drop used for Conduit S503964
  WARNING 04: minimum elevation drop used for Conduit S503990
  WARNING 04: minimum elevation drop used for Conduit S504011
  WARNING 04: minimum elevation drop used for Conduit S504013
  WARNING 04: minimum elevation drop used for Conduit S504014_1
  WARNING 04: minimum elevation drop used for Conduit S504014_2
  WARNING 04: minimum elevation drop used for Conduit S504014_3
  WARNING 05: minimum slope used for Conduit S504014_3
  WARNING 04: minimum elevation drop used for Conduit S504014_4
  WARNING 04: minimum elevation drop used for Conduit S504022
  WARNING 04: minimum elevation drop used for Conduit S504028_16
  WARNING 04: minimum elevation drop used for Conduit S504028_7
  WARNING 05: minimum slope used for Conduit S504028_7
  WARNING 04: minimum elevation drop used for Conduit S504031
  WARNING 04: minimum elevation drop used for Conduit S504038
  WARNING 04: minimum elevation drop used for Conduit S504039
  WARNING 04: minimum elevation drop used for Conduit S504040
  WARNING 04: minimum elevation drop used for Conduit S504041
  WARNING 04: minimum elevation drop used for Conduit S504054
  WARNING 04: minimum elevation drop used for Conduit S504060_2
  WARNING 04: minimum elevation drop used for Conduit S504060_3
  WARNING 04: minimum elevation drop used for Conduit S504064_1
  WARNING 04: minimum elevation drop used for Conduit S504064_2
  WARNING 04: minimum elevation drop used for Conduit S504064_3
  WARNING 05: minimum slope used for Conduit S504064_3
  WARNING 04: minimum elevation drop used for Conduit S504064_4
  WARNING 04: minimum elevation drop used for Conduit S504064_5
  WARNING 05: minimum slope used for Conduit S504064_5
  WARNING 04: minimum elevation drop used for Conduit S504080
  WARNING 04: minimum elevation drop used for Conduit S504088
  WARNING 04: minimum elevation drop used for Conduit S504094
  WARNING 04: minimum elevation drop used for Conduit S504095_1
  WARNING 04: minimum elevation drop used for Conduit S504101
  WARNING 04: minimum elevation drop used for Conduit S504106
  WARNING 04: minimum elevation drop used for Conduit S504107
  WARNING 04: minimum elevation drop used for Conduit S504108_1
  WARNING 04: minimum elevation drop used for Conduit S504108_2
  WARNING 04: minimum elevation drop used for Conduit S504110
  WARNING 04: minimum elevation drop used for Conduit S504114
  WARNING 04: minimum elevation drop used for Conduit S504116_2_2
  WARNING 05: minimum slope used for Conduit S504116_2_2
  WARNING 04: minimum elevation drop used for Conduit S504132
  WARNING 04: minimum elevation drop used for Conduit S504145_2
  WARNING 05: minimum slope used for Conduit S504145_2
  WARNING 04: minimum elevation drop used for Conduit S504145_3
  WARNING 04: minimum elevation drop used for Conduit S504145_4
  WARNING 04: minimum elevation drop used for Conduit S504145_5
  WARNING 05: minimum slope used for Conduit S504145_5
  WARNING 04: minimum elevation drop used for Conduit S504148
  WARNING 04: minimum elevation drop used for Conduit S504150
  WARNING 04: minimum elevation drop used for Conduit S504151
  WARNING 04: minimum elevation drop used for Conduit S504152
  WARNING 04: minimum elevation drop used for Conduit S504153_1
  WARNING 04: minimum elevation drop used for Conduit S504153_2
  WARNING 04: minimum elevation drop used for Conduit S504154
  WARNING 04: minimum elevation drop used for Conduit S504158
  WARNING 04: minimum elevation drop used for Conduit S504165
  WARNING 04: minimum elevation drop used for Conduit S504180
  WARNING 04: minimum elevation drop used for Conduit S504184
  WARNING 04: minimum elevation drop used for Conduit S504185_1
  WARNING 04: minimum elevation drop used for Conduit S504186
  WARNING 04: minimum elevation drop used for Conduit S504202
  WARNING 04: minimum elevation drop used for Conduit S504203_1
  WARNING 05: minimum slope used for Conduit S504203_1
  WARNING 04: minimum elevation drop used for Conduit S504204
  WARNING 05: minimum slope used for Conduit S504204
  WARNING 04: minimum elevation drop used for Conduit S504216
  WARNING 04: minimum elevation drop used for Conduit S504217
  WARNING 04: minimum elevation drop used for Conduit S504220_3
  WARNING 04: minimum elevation drop used for Conduit S504220_4
  WARNING 05: minimum slope used for Conduit S504220_4
  WARNING 04: minimum elevation drop used for Conduit S504220_8
  WARNING 04: minimum elevation drop used for Conduit S504220_9
  WARNING 05: minimum slope used for Conduit S504220_9
  WARNING 04: minimum elevation drop used for Conduit S504221
  WARNING 04: minimum elevation drop used for Conduit S504228
  WARNING 04: minimum elevation drop used for Conduit S504230
  WARNING 04: minimum elevation drop used for Conduit S504233
  WARNING 04: minimum elevation drop used for Conduit S504241
  WARNING 04: minimum elevation drop used for Conduit S504245
  WARNING 04: minimum elevation drop used for Conduit S504248
  WARNING 04: minimum elevation drop used for Conduit S504254
  WARNING 04: minimum elevation drop used for Conduit S504256
  WARNING 04: minimum elevation drop used for Conduit S504264
  WARNING 04: minimum elevation drop used for Conduit S504267
  WARNING 05: minimum slope used for Conduit S504267
  WARNING 04: minimum elevation drop used for Conduit S504268
  WARNING 04: minimum elevation drop used for Conduit S504269
  WARNING 04: minimum elevation drop used for Conduit S504273
  WARNING 04: minimum elevation drop used for Conduit S504284
  WARNING 04: minimum elevation drop used for Conduit S504285
  WARNING 04: minimum elevation drop used for Conduit S504294
  WARNING 04: minimum elevation drop used for Conduit S504301
  WARNING 04: minimum elevation drop used for Conduit S504308_1
  WARNING 04: minimum elevation drop used for Conduit S504308_4
  WARNING 04: minimum elevation drop used for Conduit S504313_3
  WARNING 04: minimum elevation drop used for Conduit S504314
  WARNING 04: minimum elevation drop used for Conduit S504316_1
  WARNING 04: minimum elevation drop used for Conduit S504316_2
  WARNING 04: minimum elevation drop used for Conduit S504329
  WARNING 04: minimum elevation drop used for Conduit S504336_7
  WARNING 05: minimum slope used for Conduit S504336_7
  WARNING 04: minimum elevation drop used for Conduit S504336_9
  WARNING 04: minimum elevation drop used for Conduit S504339
  WARNING 04: minimum elevation drop used for Conduit S504343
  WARNING 04: minimum elevation drop used for Conduit S504348
  WARNING 04: minimum elevation drop used for Conduit S504351
  WARNING 04: minimum elevation drop used for Conduit S504352_1
  WARNING 04: minimum elevation drop used for Conduit S504354_1
  WARNING 04: minimum elevation drop used for Conduit S504354_2
  WARNING 04: minimum elevation drop used for Conduit S504354_3
  WARNING 04: minimum elevation drop used for Conduit S504354_4
  WARNING 04: minimum elevation drop used for Conduit S504362
  WARNING 04: minimum elevation drop used for Conduit S504363
  WARNING 04: minimum elevation drop used for Conduit S504366
  WARNING 04: minimum elevation drop used for Conduit S504367_1
  WARNING 04: minimum elevation drop used for Conduit S504367_2
  WARNING 05: minimum slope used for Conduit S504367_2
  WARNING 04: minimum elevation drop used for Conduit S504367_3
  WARNING 05: minimum slope used for Conduit S504367_3
  WARNING 04: minimum elevation drop used for Conduit S504367_4
  WARNING 04: minimum elevation drop used for Conduit S504367_5
  WARNING 05: minimum slope used for Conduit S504367_5
  WARNING 04: minimum elevation drop used for Conduit S504367_6
  WARNING 05: minimum slope used for Conduit S504367_6
  WARNING 04: minimum elevation drop used for Conduit S504368
  WARNING 05: minimum slope used for Conduit S504368
  WARNING 04: minimum elevation drop used for Conduit S504370
  WARNING 05: minimum slope used for Conduit S504370
  WARNING 04: minimum elevation drop used for Conduit S504371
  WARNING 05: minimum slope used for Conduit S504371
  WARNING 04: minimum elevation drop used for Conduit S504375
  WARNING 04: minimum elevation drop used for Conduit S504376_1
  WARNING 04: minimum elevation drop used for Conduit S504376_2
  WARNING 05: minimum slope used for Conduit S504376_2
  WARNING 04: minimum elevation drop used for Conduit S504376_3
  WARNING 04: minimum elevation drop used for Conduit S504377
  WARNING 04: minimum elevation drop used for Conduit S504379
  WARNING 04: minimum elevation drop used for Conduit S504382
  WARNING 04: minimum elevation drop used for Conduit S504383
  WARNING 04: minimum elevation drop used for Conduit S504387
  WARNING 04: minimum elevation drop used for Conduit S504388_3
  WARNING 05: minimum slope used for Conduit S504388_3
  WARNING 04: minimum elevation drop used for Conduit S504388_4
  WARNING 05: minimum slope used for Conduit S504388_4
  WARNING 04: minimum elevation drop used for Conduit S504389
  WARNING 04: minimum elevation drop used for Conduit S504391
  WARNING 04: minimum elevation drop used for Conduit S504397_1
  WARNING 04: minimum elevation drop used for Conduit S504397_2
  WARNING 05: minimum slope used for Conduit S504397_2
  WARNING 04: minimum elevation drop used for Conduit S504399
  WARNING 04: minimum elevation drop used for Conduit S504408_3
  WARNING 05: minimum slope used for Conduit S504408_3
  WARNING 04: minimum elevation drop used for Conduit S504408_4
  WARNING 05: minimum slope used for Conduit S504408_4
  WARNING 04: minimum elevation drop used for Conduit S504409
  WARNING 04: minimum elevation drop used for Conduit S504413
  WARNING 04: minimum elevation drop used for Conduit S504417
  WARNING 04: minimum elevation drop used for Conduit S504421
  WARNING 04: minimum elevation drop used for Conduit S504427
  WARNING 04: minimum elevation drop used for Conduit S504428
  WARNING 04: minimum elevation drop used for Conduit S504431
  WARNING 04: minimum elevation drop used for Conduit S504434
  WARNING 04: minimum elevation drop used for Conduit S504441_1
  WARNING 05: minimum slope used for Conduit S504441_1
  WARNING 04: minimum elevation drop used for Conduit S504441_2
  WARNING 05: minimum slope used for Conduit S504441_2
  WARNING 04: minimum elevation drop used for Conduit S504441_3
  WARNING 04: minimum elevation drop used for Conduit S504441_4
  WARNING 04: minimum elevation drop used for Conduit S504441_5
  WARNING 04: minimum elevation drop used for Conduit S504442
  WARNING 04: minimum elevation drop used for Conduit S504453
  WARNING 04: minimum elevation drop used for Conduit S504462
  WARNING 04: minimum elevation drop used for Conduit S504467_1
  WARNING 04: minimum elevation drop used for Conduit S504467_3
  WARNING 05: minimum slope used for Conduit S504467_3
  WARNING 04: minimum elevation drop used for Conduit S504467_4
  WARNING 04: minimum elevation drop used for Conduit S504469
  WARNING 04: minimum elevation drop used for Conduit S504470
  WARNING 04: minimum elevation drop used for Conduit S504471_1
  WARNING 04: minimum elevation drop used for Conduit S504471_2
  WARNING 05: minimum slope used for Conduit S504471_2
  WARNING 04: minimum elevation drop used for Conduit S504475
  WARNING 05: minimum slope used for Conduit S504475
  WARNING 04: minimum elevation drop used for Conduit S504477
  WARNING 04: minimum elevation drop used for Conduit S504478
  WARNING 04: minimum elevation drop used for Conduit S504482
  WARNING 05: minimum slope used for Conduit S504482
  WARNING 04: minimum elevation drop used for Conduit S504483
  WARNING 04: minimum elevation drop used for Conduit S504485
  WARNING 04: minimum elevation drop used for Conduit S504495
  WARNING 04: minimum elevation drop used for Conduit S504498
  WARNING 04: minimum elevation drop used for Conduit S504503
  WARNING 04: minimum elevation drop used for Conduit S504505_12
  WARNING 05: minimum slope used for Conduit S504505_12
  WARNING 04: minimum elevation drop used for Conduit S504505_13
  WARNING 04: minimum elevation drop used for Conduit S504505_16
  WARNING 05: minimum slope used for Conduit S504505_16
  WARNING 04: minimum elevation drop used for Conduit S504505_3
  WARNING 05: minimum slope used for Conduit S504505_3
  WARNING 04: minimum elevation drop used for Conduit S504505_5
  WARNING 04: minimum elevation drop used for Conduit S504505_7
  WARNING 04: minimum elevation drop used for Conduit S504505_9
  WARNING 04: minimum elevation drop used for Conduit S504506
  WARNING 04: minimum elevation drop used for Conduit S504535
  WARNING 04: minimum elevation drop used for Conduit S504537_1
  WARNING 04: minimum elevation drop used for Conduit S504537_15
  WARNING 05: minimum slope used for Conduit S504537_15
  WARNING 04: minimum elevation drop used for Conduit S504537_16
  WARNING 04: minimum elevation drop used for Conduit S504537_17
  WARNING 04: minimum elevation drop used for Conduit S504537_18
  WARNING 05: minimum slope used for Conduit S504537_18
  WARNING 04: minimum elevation drop used for Conduit S504537_19
  WARNING 05: minimum slope used for Conduit S504537_19
  WARNING 04: minimum elevation drop used for Conduit S504537_2
  WARNING 05: minimum slope used for Conduit S504537_2
  WARNING 04: minimum elevation drop used for Conduit S504537_20
  WARNING 04: minimum elevation drop used for Conduit S504537_21
  WARNING 05: minimum slope used for Conduit S504537_21
  WARNING 04: minimum elevation drop used for Conduit S504537_26
  WARNING 04: minimum elevation drop used for Conduit S504537_5
  WARNING 04: minimum elevation drop used for Conduit S504537_6
  WARNING 05: minimum slope used for Conduit S504537_6
  WARNING 04: minimum elevation drop used for Conduit S504537_9
  WARNING 05: minimum slope used for Conduit S504537_9
  WARNING 04: minimum elevation drop used for Conduit S504538
  WARNING 04: minimum elevation drop used for Conduit S504539
  WARNING 04: minimum elevation drop used for Conduit S504552
  WARNING 04: minimum elevation drop used for Conduit S504558_4
  WARNING 05: minimum slope used for Conduit S504558_4
  WARNING 04: minimum elevation drop used for Conduit S504558_7
  WARNING 05: minimum slope used for Conduit S504558_7
  WARNING 04: minimum elevation drop used for Conduit S504560_10
  WARNING 05: minimum slope used for Conduit S504560_10
  WARNING 04: minimum elevation drop used for Conduit S504562
  WARNING 04: minimum elevation drop used for Conduit S504566
  WARNING 04: minimum elevation drop used for Conduit S504568
  WARNING 04: minimum elevation drop used for Conduit S504569
  WARNING 04: minimum elevation drop used for Conduit S504570
  WARNING 05: minimum slope used for Conduit S504570
  WARNING 04: minimum elevation drop used for Conduit S504571
  WARNING 04: minimum elevation drop used for Conduit S504572
  WARNING 04: minimum elevation drop used for Conduit S504587
  WARNING 04: minimum elevation drop used for Conduit S504588
  WARNING 04: minimum elevation drop used for Conduit S504590
  WARNING 04: minimum elevation drop used for Conduit S504605
  WARNING 04: minimum elevation drop used for Conduit S504606
  WARNING 04: minimum elevation drop used for Conduit S504611
  WARNING 04: minimum elevation drop used for Conduit S504612_1
  WARNING 04: minimum elevation drop used for Conduit S504612_2
  WARNING 04: minimum elevation drop used for Conduit S504623
  WARNING 04: minimum elevation drop used for Conduit S504631
  WARNING 04: minimum elevation drop used for Conduit S504637
  WARNING 04: minimum elevation drop used for Conduit S504645
  WARNING 04: minimum elevation drop used for Conduit S504646
  WARNING 04: minimum elevation drop used for Conduit S504649
  WARNING 04: minimum elevation drop used for Conduit S504660
  WARNING 04: minimum elevation drop used for Conduit S504662
  WARNING 04: minimum elevation drop used for Conduit S504669
  WARNING 04: minimum elevation drop used for Conduit S504673
  WARNING 04: minimum elevation drop used for Conduit S504674
  WARNING 04: minimum elevation drop used for Conduit S504676
  WARNING 04: minimum elevation drop used for Conduit S504683
  WARNING 04: minimum elevation drop used for Conduit S504684
  WARNING 04: minimum elevation drop used for Conduit S504685
  WARNING 04: minimum elevation drop used for Conduit S504698_2
  WARNING 04: minimum elevation drop used for Conduit S504699
  WARNING 05: minimum slope used for Conduit S504699
  WARNING 04: minimum elevation drop used for Conduit S504705
  WARNING 04: minimum elevation drop used for Conduit S504706
  WARNING 04: minimum elevation drop used for Conduit S504708_2
  WARNING 04: minimum elevation drop used for Conduit S504708_3
  WARNING 04: minimum elevation drop used for Conduit S504708_4
  WARNING 05: minimum slope used for Conduit S504708_4
  WARNING 04: minimum elevation drop used for Conduit S504708_6
  WARNING 05: minimum slope used for Conduit S504708_6
  WARNING 04: minimum elevation drop used for Conduit S504708_7
  WARNING 04: minimum elevation drop used for Conduit S504708_8
  WARNING 04: minimum elevation drop used for Conduit S504715_14
  WARNING 04: minimum elevation drop used for Conduit S504724
  WARNING 04: minimum elevation drop used for Conduit S504735
  WARNING 04: minimum elevation drop used for Conduit S504738
  WARNING 04: minimum elevation drop used for Conduit S504746
  WARNING 05: minimum slope used for Conduit S504746
  WARNING 04: minimum elevation drop used for Conduit S504747
  WARNING 04: minimum elevation drop used for Conduit S504748
  WARNING 04: minimum elevation drop used for Conduit S504749
  WARNING 04: minimum elevation drop used for Conduit S504750
  WARNING 04: minimum elevation drop used for Conduit S504751
  WARNING 04: minimum elevation drop used for Conduit S504753
  WARNING 04: minimum elevation drop used for Conduit S504754
  WARNING 04: minimum elevation drop used for Conduit S504755
  WARNING 04: minimum elevation drop used for Conduit S504756
  WARNING 04: minimum elevation drop used for Conduit S504761
  WARNING 04: minimum elevation drop used for Conduit S504767
[...]
  S780693                     0.80      0.81     19.10      0.46         0.58
  S780694                    17.37     17.52     17.49      7.98         7.78
  S780718                     2.08      2.08     40.61      0.33         0.13
  S780720                    26.08     26.08     34.25      0.05         0.02
  S780721                    27.92     27.92     28.10      0.01         0.01
  S780755_1                  39.89     39.89     39.89      0.01        21.06
  S780755_2                  39.48     39.48     39.89      0.01         0.01
  S780756                    41.71     41.80     41.71     36.25        27.39
  S780757                    39.89     39.89     39.89      0.08        21.10
  S780829                    29.86     29.86     29.90      0.03         0.82
  S780833                    14.61     14.61     15.18      0.01         0.01
  S780834                    13.65     13.65     15.60      0.01         0.01
  S780835                    32.91     32.91     42.95      0.01         0.04
  S780836                    31.94     31.94     32.13      0.01         0.01
  S780837                    31.94     31.94     32.03      0.01         0.01
  S780878                     0.81      0.88      1.26     12.51         0.17
  S780980_1                  26.42     26.42     26.44      3.51        11.36
  S780980_2                  26.44     26.44     34.17      0.24         0.18
  S780988                    26.42     26.42     26.44      7.70        12.51
  S780990                    26.58     26.58     47.24      0.01         0.01
  S781013                    26.11     26.11     26.13      0.01         0.01
  S781015_1                  26.27     26.28     26.27      0.68         6.70
  S781015_2                  26.27     26.27     26.27      0.01        11.76
  S781016                    25.74     25.74     26.24      0.01         0.01
  S781041                    19.78     19.78     25.80      0.01         0.01
  
  
  ***************
  Pumping Summary
  ***************
  
  ---------------------------------------------------------------------------------------------------------
                                                  Min       Avg       Max     Total     Power    % Time Off
                        Percent   Number of      Flow      Flow      Flow    Volume     Usage    Pump Curve
  Pump                 Utilized   Start-Ups       GPM       GPM       GPM  10^6 gal     Kw-hr    Low   High
  ---------------------------------------------------------------------------------------------------------
  PUMP-35                  7.10          96      0.00    852.49    897.27     0.174     28.45    0.0    0.0
  PUMP-37                  0.00           0      0.00      0.00      0.00     0.000      0.00    0.0    0.0
  PUMP-39                  0.00           0      0.00      0.00      0.00     0.000      0.00    0.0    0.0
  S500280-PUMP             0.00           0      0.00      0.00      0.00     0.000      0.00    0.0    0.0
  S500280-PUMP_2           0.00           0      0.00      0.00      0.00     0.000      0.00    0.0    0.0
  S500856-PUMP             4.21          22      0.00    844.92    884.36     0.103     19.44    0.0    0.0
  S500856-PUMP_2           0.00           0      0.00      0.00      0.00     0.000      0.00    0.0    0.0
  S500897-PUMP             4.53          68      0.00    776.31    840.97     0.101     43.14    0.0    0.0
  S500897-PUMP_2           0.00           0      0.00      0.00      0.00     0.000      0.00    0.0    0.0
  S501048-PUMP             0.32           6      0.00    874.43    876.21     0.008      0.72    0.0    0.0
  S501048-PUMP_2           0.00           0      0.00      0.00      0.00     0.000      0.00    0.0    0.0
  S502202-PUMP             0.49           4      0.00    593.52    892.63     0.009      7.10    0.0    0.0
  S502202-PUMP_2           0.00           0      0.00      0.00      0.00     0.000      0.00    0.0    0.0
  S502269-PUMP             0.89          18      0.00    795.80    891.15     0.020      6.75    0.0    0.0
  S502269-PUMP_2           0.00           0      0.00      0.00      0.00     0.000      0.00    0.0    0.0
  S502309-PUMP            12.11         104      0.00    852.88    881.36     0.297     48.76    0.0    0.0
  S502309-PUMP_2           0.00           0      0.00      0.00      0.00     0.000      0.00    0.0    0.0
  S502316-PUMP             0.00           0      0.00      0.00      0.00     0.000      0.00    0.0    0.0
  S502316-PUMP_2           0.00           0      0.00      0.00      0.00     0.000      0.00    0.0    0.0
  S502352-PUMP             1.01          10      0.00    569.17    896.50     0.017     18.57    0.0    0.0
  S502352-PUMP_2           0.00           0      0.00      0.00      0.00     0.000      0.00    0.0    0.0
  S502353-PUMP             0.06           1      0.00    798.97    896.06     0.001      0.49    0.0    0.0
  S502353-PUMP_2           0.00           0      0.00      0.00      0.00     0.000      0.00    0.0    0.0
  S502370-PUMP             0.30           2      0.00    800.31    892.03     0.007      2.19    0.0    0.0
  S502370-PUMP_2           0.00           0      0.00      0.00      0.00     0.000      0.00    0.0    0.0
  S502406-PUMP             0.73           7      0.00    556.85    893.45     0.012     12.77    0.0    0.0
  S502406-PUMP_2           0.00           0      0.00      0.00      0.00     0.000      0.00    0.0    0.0
  S502493-PUMP             0.62          13      0.00    881.75    888.00     0.016      0.98    0.0    0.0
  S502493-PUMP_2           0.00           0      0.00      0.00      0.00     0.000      0.00    0.0    0.0
  S502572-PUMP             4.57          63      0.00    831.93    889.27     0.110     25.61    0.0    0.0
  S502572-PUMP_2           0.00           0      0.00      0.00      0.00     0.000      0.00    0.0    0.0
  S502678-PUMP             0.00           0      0.00      0.00      0.00     0.000      0.00    0.0    0.0
  S502678-PUMP_2           0.00           0      0.00      0.00      0.00     0.000      0.00    0.0    0.0
  S502702-PUMP             0.08           1      0.00    603.42    723.99     0.001      1.52    0.0    0.0
  S502702-PUMP_2           0.00           0      0.00      0.00      0.00     0.000      0.00    0.0    0.0
  S502861-PUMP             6.67         176      0.00    747.19    849.01     0.145     72.96    0.0    0.0
  S502861-PUMP_2           0.00           0      0.00      0.00      0.00     0.000      0.00    0.0    0.0
  S502897-PUMP             4.40          31      0.00    736.20    894.50     0.093     51.52    0.0    0.0
  S502897-PUMP_2           0.00           0      0.00      0.00      0.00     0.000      0.00    0.0    0.0
  S502898-PUMP             0.00           0      0.00      0.00      0.00     0.000      0.00    0.0    0.0
  S502898-PUMP_2           0.00           0      0.00      0.00      0.00     0.000      0.00    0.0    0.0
  S502900-PUMP             0.16           3      0.00    781.75    792.17     0.004      1.50    0.0    0.0
  S502900-PUMP_2           0.00           0      0.00      0.00      0.00     0.000      0.00    0.0    0.0
  S502947-PUMP             0.00           0      0.00      0.00      0.00     0.000      0.00    0.0    0.0
  S502947-PUMP_2           0.00           0      0.00      0.00      0.00     0.000      0.00    0.0    0.0
  S502996-PUMP             0.46           6      0.00    540.72    892.60     0.008      6.98    0.0    0.0
  S502996-PUMP_2           0.00           0      0.00      0.00      0.00     0.000      0.00    0.0    0.0
  S503037-PUMP             0.00           0      0.00      0.00      0.00     0.000      0.00    0.0    0.0
  S503037-PUMP_2           0.00           0      0.00      0.00      0.00     0.000      0.00    0.0    0.0
  S503350-PUMP             0.94          13      0.00    573.48    888.56     0.016     11.33    0.0    0.0
  S503350-PUMP_2           0.00           0      0.00      0.00      0.00     0.000      0.00    0.0    0.0
  S503392-PUMP             0.68           7      0.00    660.71    888.08     0.013     10.09    0.0    0.0
  S503392-PUMP_2           0.00           0      0.00      0.00      0.00     0.000      0.00    0.0    0.0
  S503462-PUMP             0.20           2      0.00    878.35    888.39     0.005      0.38    0.0    0.0
  S503462-PUMP_2           0.00           0      0.00      0.00      0.00     0.000      0.00    0.0    0.0
  S503630-PUMP            41.46         236      0.00    848.54    889.61     1.015    174.77    0.0    0.0
  S503630-PUMP_2           0.00           0      0.00      0.00      0.00     0.000      0.00    0.0    0.0
  S503841-PUMP             0.00           0      0.00      0.00      0.00     0.000      0.00    0.0    0.0
  S503841-PUMP_2           0.00           0      0.00      0.00      0.00     0.000      0.00    0.0    0.0
  S503898-PUMP             0.08           3      0.00    888.92    889.94     0.002      0.08    0.0    0.0
  S503898-PUMP_2           0.00           0      0.00      0.00      0.00     0.000      0.00    0.0    0.0
  S504193-PUMP             0.33           6      0.00    871.98    878.52     0.008      0.82    0.0    0.0
  S504193-PUMP_2           0.00           0      0.00      0.00      0.00     0.000      0.00    0.0    0.0
  S504246-PUMP             0.00           0      0.00      0.00      0.00     0.000      0.00    0.0    0.0
  S504246-PUMP_2           0.00           0      0.00      0.00      0.00     0.000      0.00    0.0    0.0
  S504247-PUMP             0.00           0      0.00      0.00      0.00     0.000      0.00    0.0    0.0
  S504247-PUMP_2           0.00           0      0.00      0.00      0.00     0.000      0.00    0.0    0.0
  S504418-PUMP            14.97          74      0.00    873.11    889.55     0.376     34.89    0.0    0.0
  S504418-PUMP_2           0.00           0      0.00      0.00      0.00     0.000      0.00    0.0    0.0
  S504459-PUMP             2.02          25      0.00    899.62    900.00     0.052      0.11    0.0    0.0
  S504459-PUMP_2           0.00           0      0.00      0.00      0.00     0.000      0.00    0.0    0.0
  S504482-PUMP             0.00           0      0.00      0.00      0.00     0.000      0.00    0.0    0.0
  S504482-PUMP_2           0.00           0      0.00      0.00      0.00     0.000      0.00    0.0    0.0
  S504600-PUMP             0.44          10      0.00    674.16    679.74     0.008      6.70    0.0    0.0
  S504600-PUMP_2           0.00           0      0.00      0.00      0.00     0.000      0.00    0.0    0.0
  S504615-PUMP             0.00           0      0.00      0.00      0.00     0.000      0.00    0.0    0.0
  S504615-PUMP_2           0.00           0      0.00      0.00      0.00     0.000      0.00    0.0    0.0
  S504636-PUMP             1.69           8      0.00    509.53    898.89     0.025     32.45    0.0    0.0
  S504636-PUMP_2           0.00           0      0.00      0.00      0.00     0.000      0.00    0.0    0.0
  S504655-PUMP             1.16          16      0.00    884.66    888.30     0.030      1.61    0.0    0.0
  S504655-PUMP_2           0.00           0      0.00      0.00      0.00     0.000      0.00    0.0    0.0
  S504657-PUMP             6.59         159      0.00    881.74    882.84     0.167     10.68    0.0    0.0
  S504657-PUMP_2           0.00           0      0.00      0.00      0.00     0.000      0.00    0.0    0.0
  S504741-PUMP             0.00           0      0.00      0.00      0.00     0.000      0.00    0.0    0.0
  S504741-PUMP_2           0.00           0      0.00      0.00      0.00     0.000      0.00    0.0    0.0
  S504870-PUMP             5.79           9      0.00    844.56    892.48     0.141     27.26    0.0    0.0
  S504870-PUMP_2           0.00           0      0.00      0.00      0.00     0.000      0.00    0.0    0.0
  S504871_1-PUMP           1.34          22      0.00    789.17    892.71     0.031      8.40    0.0    0.0
  S504871_1-PUMP_2         0.00           0      0.00      0.00      0.00     0.000      0.00    0.0    0.0
  S504977-PUMP             0.27           4      0.00    882.03    887.08     0.007      0.43    0.0    0.0
  S504977-PUMP_2           0.00           0      0.00      0.00      0.00     0.000      0.00    0.0    0.0
  S505079-PUMP             0.00           0      0.00      0.00      0.00     0.000      0.00    0.0    0.0
  S505161-PUMP             1.77           3      0.00     91.71     91.89     0.005      0.23    0.0   89.4
  S505161-PUMP_2           0.00           0      0.00      0.00      0.00     0.000      0.00    0.0    0.0
  S505301-PUMP             0.00           0      0.00      0.00      0.00     0.000      0.00    0.0    0.0
  S505339-PUMP             0.00           0      0.00      0.00      0.00     0.000      0.00    0.0    0.0
  S505373-PUMP             0.27           6      0.00    889.91    891.11     0.007      0.24    0.0    0.0
  S505373-PUMP_2           0.00           0      0.00      0.00      0.00     0.000      0.00    0.0    0.0
  S505423-PUMP             0.14           3      0.00    832.93    875.19     0.003      0.77    0.0    0.0
  S505423-PUMP_2           0.00           0      0.00      0.00      0.00     0.000      0.00    0.0    0.0
  S505550-PUMP             0.13           2      0.00    725.91    891.71     0.003      1.57    0.0    0.0
  S505550-PUMP_2           0.00           0      0.00      0.00      0.00     0.000      0.00    0.0    0.0
  S505803-PUMP             1.20          16      0.00    666.58    889.15     0.023     18.51    0.0    0.0
  S505803-PUMP_2           0.00           0      0.00      0.00      0.00     0.000      0.00    0.0    0.0
  S505828-PUMP             0.23           2      0.00    682.57    829.15     0.005      0.77    0.0    0.0
  S505828-PUMP_2           0.00           0      0.00      0.00      0.00     0.000      0.00    0.0    0.0
  S505829-PUMP             2.13           6      0.00    269.34    893.00     0.017      3.53    0.0    0.7
  S505829-PUMP_2           0.00           0      0.00      0.00      0.00     0.000      0.00    0.0    0.0
  S505839-PUMP             0.16           2      0.00    806.77    881.41     0.004      1.10    0.0    0.0
  S505839-PUMP_2           0.00           0      0.00      0.00      0.00     0.000      0.00    0.0    0.0
  S505896-PUMP             1.00           3      0.00    125.60    887.19     0.004      8.03    0.0    0.0
  S505896-PUMP_2           0.00           0      0.00      0.00      0.00     0.000      0.00    0.0    0.0
  S505938-PUMP             0.27           4      0.00    778.16    855.81     0.006      2.65    0.0    0.0
  S505938-PUMP_2           0.00           0      0.00      0.00      0.00     0.000      0.00    0.0    0.0
  S505999-PUMP             1.19           9      0.00    637.91    886.73     0.022     19.21    0.0    0.0
  S505999-PUMP_2           0.00           0      0.00      0.00      0.00     0.000      0.00    0.0    0.0
  S506021-PUMP             1.43          21      0.00    870.36    884.53     0.036      3.79    0.0    0.0
  S506021-PUMP_2           0.00           0      0.00      0.00      0.00     0.000      0.00    0.0    0.0
  S506023-PUMP             0.61           6      0.00    810.64    891.77     0.014      4.11    0.0    0.0
  S506023-PUMP_2           0.00           0      0.00      0.00      0.00     0.000      0.00    0.0    0.0
  S506051-PUMP             2.67          22      0.00    826.97    871.89     0.064     15.53    0.0    0.0
  S506051-PUMP_2           0.00           0      0.00      0.00      0.00     0.000      0.00    0.0    0.0
  S506095-PUMP             1.06          16      0.00    780.22    884.17     0.024     10.11    0.0    0.0
  S506095-PUMP_2           0.00           0      0.00      0.00      0.00     0.000      0.00    0.0    0.0
  S506112-PUMP             0.00           0      0.00      0.00      0.00     0.000      0.00    0.0    0.0
  S506112-PUMP_2           0.00           0      0.00      0.00      0.00     0.000      0.00    0.0    0.0
  S506162-PUMP             0.00           0      0.00      0.00      0.00     0.000      0.00    0.0    0.0
  S506162-PUMP_2           0.00           0      0.00      0.00      0.00     0.000      0.00    0.0    0.0
  S506171-PUMP             2.14          21      0.00    839.78    887.87     0.052     10.29    0.0    0.0
  S506171-PUMP_2           0.00           0      0.00      0.00      0.00     0.000      0.00    0.0    0.0
  S506174-PUMP             0.17           2      0.00    668.57    708.75     0.003      2.62    0.0    0.0
  S506174-PUMP_2           0.00           0      0.00      0.00      0.00     0.000      0.00    0.0    0.0
  S506225-PUMP             0.33           2      0.00    519.34    896.93     0.005      5.65    0.0    0.0
  S506225-PUMP_2           0.00           0      0.00      0.00      0.00     0.000      0.00    0.0    0.0
  S506422-PUMP             1.27          18      0.00    673.21    882.33     0.025     18.82    0.0    0.0
  S506422-PUMP_2           0.00           0      0.00      0.00      0.00     0.000      0.00    0.0    0.0
  S506473-PUMP             0.87          18      0.00    595.42    891.09     0.015     15.45    0.0    0.0
  S506473-PUMP_2           0.00           0      0.00      0.00      0.00     0.000      0.00    0.0    0.0
  S506474-PUMP             0.85          20      0.00    384.43    891.60     0.009     16.10    0.0    0.0
  S506474-PUMP_2           0.00           0      0.00      0.00      0.00     0.000      0.00    0.0    0.0
  S506475-PUMP             0.41          11      0.00    781.97    883.45     0.009      3.39    0.0    0.0
  S506475-PUMP_2           0.00           0      0.00      0.00      0.00     0.000      0.00    0.0    0.0
  S506564-PUMP             0.00           0      0.00      0.00      0.00     0.000      0.00    0.0    0.0
  S506564-PUMP_2           0.00           0      0.00      0.00      0.00     0.000      0.00    0.0    0.0
  S506728-PUMP             0.04           1      0.00    767.63    888.50     0.001      0.40    0.0    0.0
  S506728-PUMP_2           0.00           0      0.00      0.00      0.00     0.000      0.00    0.0    0.0
  S506788-PUMP             0.00           0      0.00      0.00      0.00     0.000      0.00    0.0    0.0
  S506788-PUMP_2           0.00           0      0.00      0.00      0.00     0.000      0.00    0.0    0.0
  S506846-PUMP             3.13          81      0.00    761.31    890.69     0.069     32.15    0.0    0.0
  S506846-PUMP_2           0.00           0      0.00      0.00      0.00     0.000      0.00    0.0    0.0
  S780581-PUMP             3.37          63      0.00    863.13    888.02     0.085      8.40    0.0    0.0
  S780581-PUMP_2           0.00           0      0.00      0.00      0.00     0.000      0.00    0.0    0.0
  S780592-PUMP             0.00           0      0.00      0.00      0.00     0.000      0.00    0.0    0.0
  S780592-PUMP_2           0.00           0      0.00      0.00      0.00     0.000      0.00    0.0    0.0
  S780692-PUMP             2.53          65      0.00    889.16    895.13     0.065      2.21    0.0    0.0
  S780692-PUMP_2           0.00           0      0.00      0.00      0.00     0.000      0.00    0.0    0.0
  S780721-PUMP             0.00           0      0.00      0.00      0.00     0.000      0.00    0.0    0.0
  S780721-PUMP_2           0.00           0      0.00      0.00      0.00     0.000      0.00    0.0    0.0
  S780829-PUMP             0.00           0      0.00      0.00      0.00     0.000      0.00    0.0    0.0
  S780829-PUMP_2           0.00           0      0.00      0.00      0.00     0.000      0.00    0.0    0.0
  

  Analysis begun on:  Fri Mar  6 13:37:04 2026
  Analysis ended on:  Fri Mar  6 13:42:59 2026
  Total elapsed time: 00:05:55