
  EPA STORM WATER MANAGEMENT MODEL - VERSION 5.2 (Build 5.2.4)
  ------------------------------------------------------------

  
  ERROR 361: could not open external file used for Time Series COUNTYRG.
  WARNING 01: wet weather time step reduced to recording interval for Rain Gage COUNTY

  Analysis begun on:  Fri Mar  6 13:42:59 2026
  Analysis ended on:  Fri Mar  6 13:42:59 2026
  Total elapsed time: < 1 sec