
  EPA STORM WATER MANAGEMENT MODEL - VERSION 5.2 (Build 5.2.4)
  ------------------------------------------------------------

  WARNING 04: minimum elevation drop used for Conduit l240
  WARNING 04: minimum elevation drop used for Conduit l241
  WARNING 04: minimum elevation drop used for Conduit yg67
  WARNING 04: minimum elevation drop used for Conduit yg115
  WARNING 04: minimum elevation drop used for Conduit yg117
  WARNING 04: minimum elevation drop used for Conduit yg185
  WARNING 04: minimum elevation drop used for Conduit yg202
  WARNING 04: minimum elevation drop used for Conduit yg131
  WARNING 04: minimum elevation drop used for Conduit yg195
  WARNING 04: minimum elevation drop used for Conduit yg197
  WARNING 04: minimum elevation drop used for Conduit yg215
  WARNING 02: maximum depth increased for Node yj220
  
  ****************
  Analysis Options
  ****************
  Flow Units ............... CMS
  Process Models:
    Rainfall/Runoff ........ YES
    RDII ................... NO
    Snowmelt ............... NO
    Groundwater ............ NO
    Flow Routing ........... YES
    Ponding Allowed ........ NO
    Water Quality .......... NO
  Infiltration Method ...... HORTON
  Flow Routing Method ...... DYNWAVE
  Surcharge Method ......... EXTRAN
  Starting Date ............ 06/08/2014 00:00:00
  Ending Date .............. 06/08/2014 09:00:00
  Antecedent Dry Days ...... 0.0
  Report Time Step ......... 00:01:00
  Wet Time Step ............ 00:01:00
  Dry Time Step ............ 01:00:00
  Routing Time Step ........ 30.00 sec
  Variable Time Step ....... YES
  Maximum Trials ........... 8
  Number of Threads ........ 1
  Head Tolerance ........... 0.001524 m
  
  
  **************************        Volume         Depth
  Runoff Quantity Continuity     hectare-m            mm
  **************************     ---------       -------
  Total Precipitation ......       495.901       204.847
  Evaporation Loss .........         0.000         0.000
  Infiltration Loss ........        31.550        13.033
  Surface Runoff ...........       461.453       190.617
  Final Storage ............         2.942         1.215
  Continuity Error (%) .....        -0.009
  
  
  **************************        Volume        Volume
  Flow Routing Continuity        hectare-m      10^6 ltr
  **************************     ---------     ---------
  Dry Weather Inflow .......         0.000         0.000
  Wet Weather Inflow .......       461.026      4610.308
  Groundwater Inflow .......         0.000         0.000
  RDII Inflow ..............         0.000         0.000
  External Inflow ..........         0.000         0.000
  External Outflow .........       212.903      2129.049
  Flooding Loss ............       192.025      1920.269
  Evaporation Loss .........         0.000         0.000
  Exfiltration Loss ........         0.000         0.000
  Initial Stored Volume ....         0.108         1.080
  Final Stored Volume ......        56.251       562.518
  Continuity Error (%) .....        -0.010
  
  
  *************************
  Highest Continuity Errors
  *************************
  Node 17 (53.22%)
  Node 13 (7.70%)
  Node j129 (2.39%)
  Node j124 (2.38%)
  Node j191 (2.21%)
  
  
  ***************************
  Time-Step Critical Elements
  ***************************
  Link yg214 (65.29%)
  Link yg118 (13.91%)
  Link l268 (13.79%)
  Link 10 (1.35%)
  
  
  ********************************
  Highest Flow Instability Indexes
  ********************************
  Link yg201 (51)
  Link yg148 (43)
  Link yg203 (43)
  Link yg139 (41)
  Link 28 (41)
  
  
  *********************************
  Most Frequent Nonconverging Nodes
  *********************************
  Node p1 (38.73%)
  Node 1 (38.73%)
  Node j278 (3.97%)
  Node j133 (3.79%)
  Node yj143 (3.11%)
  
  
  *************************
  Routing Time Step Summary
  *************************
  Minimum Time Step           :     0.50 sec
  Average Time Step           :     3.36 sec
  Maximum Time Step           :    30.00 sec
  % of Time in Steady State   :     0.00
  Average Iterations per Step :     5.02
  % of Steps Not Converging   :    38.73
  Time Step Frequencies       :
     30.000 - 13.228 sec      :     0.16 %
     13.228 -  5.833 sec      :     1.07 %
      5.833 -  2.572 sec      :    90.08 %
      2.572 -  1.134 sec      :     7.54 %
      1.134 -  0.500 sec      :     1.15 %
  
  
  ***************************
  Subcatchment Runoff Summary
  ***************************
  
  ------------------------------------------------------------------------------------------------------------------------------
                            Total      Total      Total      Total     Imperv       Perv      Total       Total     Peak  Runoff
                           Precip      Runon       Evap      Infil     Runoff     Runoff     Runoff      Runoff   Runoff   Coeff
  Subcatchment                 mm         mm         mm         mm         mm         mm         mm    10^6 ltr      CMS
  ------------------------------------------------------------------------------------------------------------------------------
  m1                       204.85       0.00       0.00      13.44     142.43      48.02     190.45        6.95     1.61   0.930
  m2                       204.85       0.00       0.00      13.06     142.47      48.40     190.87        5.44     1.35   0.932
  m3                       204.85       0.00       0.00      13.20     142.45      48.26     190.71        5.99     1.45   0.931
  m4                       204.85       0.00       0.00      13.45     142.41      47.86     190.26        7.63     1.73   0.929
  m5                       204.85       0.00       0.00      13.45     142.40      47.84     190.24        7.70     1.74   0.929
  m6                       204.85       0.00       0.00      13.45     142.36      47.54     189.90        9.02     1.95   0.927
  m7                       204.85       0.00       0.00      13.45     142.41      47.93     190.34        7.33     1.68   0.929
  m8                       204.85       0.00       0.00      12.68     142.51      48.78     191.28        4.07     1.09   0.934
  m9                       204.85       0.00       0.00      13.45     142.41      47.92     190.33        7.37     1.68   0.929
  m10                      204.85       0.00       0.00      12.66     142.51      48.80     191.31        4.00     1.07   0.934
  m11                      204.85       0.00       0.00      12.52     142.52      48.93     191.45        3.54     0.98   0.935
  m12                      204.85       0.00       0.00      12.74     142.50      48.72     191.22        4.26     1.13   0.933
  m13                      204.85       0.00       0.00      12.67     142.51      48.79     191.29        4.04     1.08   0.934
  m14                      204.85       0.00       0.00      13.45     142.42      47.98     190.40        7.12     1.64   0.929
  m15                      204.85       0.00       0.00      12.13     142.55      49.32     191.87        2.36     0.71   0.937
  m16                      204.85       0.00       0.00      12.70     142.50      48.76     191.26        4.13     1.10   0.934
  m17                      204.85       0.00       0.00      12.96     142.48      48.50     190.97        5.08     1.28   0.932
  m18                      204.85       0.00       0.00      12.88     142.49      48.57     191.06        4.80     1.23   0.933
  m19                      204.85       0.00       0.00      12.52     142.52      48.94     191.46        3.52     0.98   0.935
  m20                      204.85       0.00       0.00      12.32     142.54      49.14     191.68        2.89     0.84   0.936
  m21                      204.85       0.00       0.00      12.72     142.50      48.73     191.23        4.23     1.12   0.934
  m22                      204.85       0.00       0.00      12.38     142.53      49.07     191.60        3.10     0.89   0.935
  m23                      204.85       0.00       0.00      12.21     142.54      49.24     191.79        2.59     0.77   0.936
  m24                      204.85       0.00       0.00      13.45     142.33      47.37     189.70        9.85     2.07   0.926
  m25                      204.85       0.00       0.00      13.10     142.46      48.35     190.82        5.61     1.38   0.932
  m26                      204.85       0.00       0.00      13.19     142.45      48.26     190.72        5.97     1.44   0.931
  m27                      204.85       0.00       0.00      12.83     142.49      48.63     191.12        4.59     1.19   0.933
  m28                      204.85       0.00       0.00      12.76     142.50      48.69     191.19        4.36     1.15   0.933
  m29                      204.85       0.00       0.00      12.37     142.53      49.08     191.62        3.07     0.88   0.935
  m30                      204.85       0.00       0.00      12.47     142.52      48.99     191.51        3.37     0.94   0.935
  m31                      204.85       0.00       0.00      12.29     142.54      49.17     191.71        2.80     0.82   0.936
  m32                      204.85       0.00       0.00      11.87     142.57      49.59     192.16        1.65     0.54   0.938
  m33                      204.85       0.00       0.00      12.05     142.55      49.41     191.96        2.13     0.66   0.937
  m34                      204.85       0.00       0.00      11.97     142.56      49.49     192.04        1.92     0.61   0.938
  m35                      204.85       0.00       0.00      12.97     142.48      48.49     190.97        5.10     1.29   0.932
  m36                      204.85       0.00       0.00      12.66     142.51      48.80     191.31        4.00     1.07   0.934
  m37                      204.85       0.00       0.00      13.45     142.25      46.88     189.13       12.22     2.41   0.923
  m38                      204.85     208.14       0.00      13.48     287.69     108.51     396.20       23.26     3.98   0.959
  m39                      204.85       0.00       0.00      13.45     142.30      47.19     189.50       10.67     2.19   0.925
  m40                      204.85       0.00       0.00      13.40     142.43      48.06     190.49        6.80     1.58   0.930
  m41                      204.85     247.29       0.00      13.49     315.47     121.77     437.23       12.02     2.50   0.967
  m42                      204.85     355.74       0.00      13.49     391.27     153.69     544.96       18.42     3.43   0.972
  m43                      204.85       0.00       0.00      12.87     142.49      48.59     191.08        4.74     1.22   0.933
  m44                      204.85       0.00       0.00      12.39     142.53      49.07     191.60        3.12     0.89   0.935
  m45                      204.85       0.00       0.00      13.45     142.31      47.20     189.51       10.63     2.19   0.925
  m46                      204.85       0.00       0.00      13.45     142.41      47.89     190.30        7.50     1.70   0.929
  m47                      204.85       0.00       0.00      13.34     142.44      48.12     190.55        6.56     1.54   0.930
  m48                      204.85       0.00       0.00      12.35     142.53      49.11     191.64        2.99     0.86   0.936
  m49                      204.85       0.00       0.00      12.93     142.48      48.53     191.01        4.97     1.26   0.932
  m50                      204.85       0.00       0.00      12.75     142.50      48.70     191.20        4.32     1.14   0.933
  m51                      204.85       0.00       0.00      12.86     142.49      48.59     191.08        4.72     1.22   0.933
  m52                      204.85       0.00       0.00      13.45     142.40      47.78     190.18        7.95     1.78   0.928
  m53                      204.85       0.00       0.00      13.45     142.37      47.61     189.99        8.70     1.90   0.927
  m54                      204.85       0.00       0.00      12.34     142.53      49.12     191.65        2.97     0.86   0.936
  m55                      204.85       0.00       0.00      12.63     142.51      48.83     191.34        3.90     1.06   0.934
  m56                      204.85       0.00       0.00      13.45     142.29      47.09     189.38       11.15     2.26   0.924
  m57                      204.85       0.00       0.00      12.71     142.50      48.75     191.25        4.17     1.11   0.934
  m58                      204.85       0.00       0.00      12.60     142.51      48.86     191.37        3.79     1.03   0.934
  m59                      204.85       0.00       0.00      13.45     142.36      47.56     189.92        8.95     1.94   0.927
  m60                      204.85       0.00       0.00      13.31     142.44      48.15     190.59        6.42     1.52   0.930
  m61                      204.85     155.57       0.00      13.48     251.03      93.10     344.12       19.79     3.58   0.955
  m62                      204.85     171.73       0.00      13.49     262.54      98.84     361.38       13.52     2.74   0.960
  m63                      204.85       0.00       0.00      13.21     142.45      48.25     190.70        6.03     1.45   0.931
  m64                      204.85     180.97       0.00      13.49     269.03     101.80     370.83       12.35     2.56   0.961
  m65                      204.85       0.00       0.00      13.09     142.47      48.36     190.83        5.57     1.37   0.932
  m66                      204.85       0.00       0.00      12.95     142.48      48.51     190.99        5.02     1.27   0.932
  m67                      204.85       0.00       0.00      12.77     142.50      48.69     191.19        4.38     1.15   0.933
  m68                      204.85       0.00       0.00      13.38     142.43      48.08     190.51        6.71     1.57   0.930
  m69                      204.85     157.46       0.00      13.49     252.61      94.92     347.53       11.09     2.37   0.959
  m70                      204.85     142.15       0.00      13.49     241.91      90.45     332.36       10.24     2.24   0.958
  m71                      204.85       0.00       0.00      13.05     142.47      48.41     190.88        5.40     1.34   0.932
  m72                      204.85       0.00       0.00      12.99     142.48      48.46     190.94        5.19     1.30   0.932
  m73                      204.85       0.00       0.00      13.45     142.40      47.81     190.21        7.84     1.76   0.929
  m74                      204.85     141.48       0.00      13.48     241.29      89.40     330.70       15.68     3.04   0.955
  m75                      204.85       0.00       0.00      13.25     142.45      48.21     190.65        6.20     1.48   0.931
  m76                      204.85       0.00       0.00      12.32     142.54      49.14     191.68        2.89     0.84   0.936
  m77                      204.85       0.00       0.00      12.88     142.49      48.58     191.07        4.78     1.23   0.933
  m78                      204.85       0.00       0.00      13.45     142.36      47.51     189.87        9.17     1.97   0.927
  m79                      204.85       0.00       0.00      13.45     142.41      47.88     190.29        7.54     1.71   0.929
  m80                      204.85       0.00       0.00      13.38     142.43      48.07     190.51        6.72     1.57   0.930
  m81                      204.85       0.00       0.00      13.45     142.33      47.37     189.70        9.83     2.07   0.926
  m82                      204.85       0.00       0.00      13.45     142.24      46.84     189.08       12.44     2.44   0.923
  m83                      204.85       0.00       0.00      12.09     142.55      49.37     191.92        2.23     0.68   0.937
  m84                      204.85       0.00       0.00      12.98     142.48      48.48     190.96        5.14     1.29   0.932
  m85                      204.85       0.00       0.00      12.46     142.52      49.00     191.52        3.33     0.94   0.935
  m86                      204.85       0.00       0.00      12.20     142.54      49.26     191.80        2.55     0.76   0.936
  m87                      204.85       0.00       0.00      11.99     142.56      49.46     192.02        1.98     0.62   0.937
  m88                      204.85       0.00       0.00      12.37     142.53      49.08     191.62        3.07     0.88   0.935
  m89                      204.85       0.00       0.00      12.26     142.54      49.20     191.74        2.72     0.80   0.936
  m90                      204.85       0.00       0.00      12.15     142.55      49.30     191.85        2.42     0.73   0.937
  m91                      204.85       0.00       0.00      12.78     142.50      48.67     191.17        4.44     1.16   0.933
  m92                      204.85       0.00       0.00      13.40     142.43      48.05     190.48        6.82     1.59   0.930
  m93                      204.85       0.00       0.00      13.45     142.27      46.99     189.26       11.66     2.33   0.924
  m94                      204.85       0.00       0.00      13.45     142.38      47.68     190.06        8.42     1.85   0.928
  m95                      204.85       0.00       0.00      11.90     142.56      49.56     192.12        1.73     0.56   0.938
  m96                      204.85       0.00       0.00      11.85     142.57      49.61     192.17        1.61     0.53   0.938
  m97                      204.85       0.00       0.00      12.27     142.54      49.19     191.73        2.74     0.80   0.936
  m98                      204.85       0.00       0.00      12.34     142.53      49.12     191.66        2.95     0.85   0.936
  m99                      204.85       0.00       0.00      13.45     142.38      47.70     190.08        8.33     1.84   0.928
  m100                     204.85       0.00       0.00      13.02     142.47      48.44     190.91        5.29     1.32   0.932
  m101                     204.85       0.00       0.00      12.90     142.49      48.56     191.04        4.85     1.24   0.933
  m102                     204.85       0.00       0.00      13.14     142.46      48.32     190.78        5.74     1.40   0.931
  m103                     204.85       0.00       0.00      13.08     142.47      48.37     190.84        5.53     1.37   0.932
  m104                     204.85       0.00       0.00      12.67     142.51      48.79     191.29        4.04     1.08   0.934
  m105                     204.85       0.00       0.00      13.45     142.37      47.61     189.98        8.72     1.90   0.927
  m106                     204.85       0.00       0.00      13.45     142.41      47.87     190.27        7.59     1.72   0.929
  m107                     204.85       0.00       0.00      13.10     142.46      48.35     190.82        5.61     1.38   0.932
  m108                     204.85       0.00       0.00      13.45     142.35      47.49     189.84        9.26     1.99   0.927
  m109                     204.85       0.00       0.00      13.45     142.40      47.82     190.21        7.82     1.76   0.929
  m110                     204.85       0.00       0.00      12.58     142.51      48.88     191.39        3.73     1.02   0.934
  m111                     204.85       0.00       0.00      13.45     142.39      47.71     190.10        8.27     1.83   0.928
  m112                     204.85       0.00       0.00      12.54     142.52      48.91     191.43        3.62     1.00   0.935
  m113                     204.85       0.00       0.00      12.86     142.49      48.60     191.09        4.70     1.21   0.933
  m114                     204.85       0.00       0.00      12.83     142.49      48.63     191.12        4.59     1.19   0.933
  m115                     204.85       0.00       0.00      13.45     142.38      47.66     190.03        8.51     1.87   0.928
  m116                     204.85       0.00       0.00      12.97     142.48      48.48     190.96        5.12     1.29   0.932
  m117                     204.85       0.00       0.00      13.45     142.40      47.78     190.18        7.95     1.78   0.928
  m118                     204.85       0.00       0.00      13.45     142.34      47.43     189.77        9.55     2.03   0.926
  m119                     204.85       0.00       0.00      13.39     142.43      48.07     190.50        6.74     1.57   0.930
  m120                     204.85       0.00       0.00      12.54     142.52      48.92     191.44        3.60     0.99   0.935
  m121                     204.85       0.00       0.00      12.75     142.50      48.70     191.20        4.32     1.14   0.933
  m122                     204.85       0.00       0.00      12.77     142.50      48.69     191.19        4.38     1.15   0.933
  m123                     204.85       0.00       0.00      12.60     142.51      48.85     191.37        3.81     1.04   0.934
  m124                     204.85       0.00       0.00      12.47     142.52      48.99     191.51        3.37     0.94   0.935
  m125                     204.85       0.00       0.00      12.32     142.54      49.13     191.67        2.91     0.84   0.936
  m126                     204.85       0.00       0.00      12.78     142.50      48.68     191.18        4.42     1.16   0.933
  m127                     204.85       0.00       0.00      12.90     142.49      48.56     191.04        4.85     1.24   0.933
  m128                     204.85       0.00       0.00      12.89     142.49      48.57     191.05        4.81     1.23   0.933
  m129                     204.85       0.00       0.00      12.74     142.50      48.72     191.22        4.28     1.13   0.933
  m130                     204.85       0.00       0.00      12.76     142.50      48.69     191.19        4.36     1.15   0.933
  m131                     204.85       0.00       0.00      12.93     142.48      48.53     191.01        4.95     1.26   0.932
  m132                     204.85       0.00       0.00      12.85     142.49      48.61     191.10        4.66     1.21   0.933
  m133                     204.85       0.00       0.00      12.98     142.48      48.48     190.96        5.14     1.29   0.932
  m134                     204.85       0.00       0.00      12.60     142.51      48.85     191.37        3.81     1.04   0.934
  m135                     204.85       0.00       0.00      12.72     142.50      48.73     191.23        4.23     1.12   0.934
  m136                     204.85       0.00       0.00      12.90     142.49      48.55     191.04        4.87     1.24   0.933
  m137                     204.85       0.00       0.00      13.12     142.46      48.34     190.80        5.69     1.39   0.931
  m138                     204.85       0.00       0.00      12.23     142.54      49.23     191.77        2.63     0.78   0.936
  m139                     204.85       0.00       0.00      12.37     142.53      49.09     191.62        3.05     0.87   0.935
  m140                     204.85       0.00       0.00      12.44     142.53      49.02     191.54        3.28     0.92   0.935
  m141                     204.85       0.00       0.00      12.30     142.54      49.16     191.70        2.84     0.83   0.936
  m142                     204.85       0.00       0.00      12.60     142.51      48.85     191.37        3.81     1.04   0.934
  m143                     204.85       0.00       0.00      12.44     142.53      49.02     191.54        3.28     0.92   0.935
  m144                     204.85       0.00       0.00      13.11     142.46      48.35     190.81        5.65     1.39   0.931
  m145                     204.85       0.00       0.00      12.89     142.49      48.56     191.05        4.83     1.24   0.933
  m146                     204.85       0.00       0.00      13.04     142.47      48.41     190.89        5.38     1.34   0.932
  m147                     204.85       0.00       0.00      13.10     142.46      48.35     190.82        5.61     1.38   0.932
  m148                     204.85       0.00       0.00      12.46     142.52      49.00     191.52        3.33     0.94   0.935
  m149                     204.85       0.00       0.00      12.54     142.52      48.91     191.43        3.62     1.00   0.935
  m150                     204.85     161.72       0.00      13.48     255.50      95.69     351.20       14.40     2.86   0.958
  m151                     204.85       0.00       0.00      13.36     142.44      48.10     190.53        6.63     1.56   0.930
  m152                     204.85       0.00       0.00      12.67     142.51      48.78     191.29        4.06     1.09   0.934
  m153                     204.85       0.00       0.00      12.23     142.54      49.23     191.77        2.63     0.78   0.936
  m154                     204.85       0.00       0.00      13.45     142.25      46.90     189.16       12.11     2.39   0.923
  m155                     204.85       0.00       0.00      12.57     142.52      48.88     191.40        3.71     1.02   0.934
  m156                     204.85       0.00       0.00      12.83     142.49      48.63     191.12        4.59     1.19   0.933
  m157                     204.85       0.00       0.00      13.45     142.35      47.45     189.80        9.43     2.01   0.927
  m158                     204.85       0.00       0.00      13.07     142.47      48.39     190.86        5.48     1.36   0.932
  m159                     204.85       0.00       0.00      12.50     142.52      48.96     191.48        3.47     0.96   0.935
  m160                     204.85       0.00       0.00      12.87     142.49      48.58     191.07        4.76     1.22   0.933
  m161                     204.85       0.00       0.00      12.86     142.49      48.59     191.08        4.72     1.22   0.933
  m162                     204.85       0.00       0.00      12.60     142.51      48.85     191.37        3.81     1.04   0.934
  m163                     204.85       0.00       0.00      13.31     142.44      48.14     190.59        6.44     1.52   0.930
  m164                     204.85       0.00       0.00      13.45     142.38      47.68     190.06        8.42     1.85   0.928
  m165                     204.85       0.00       0.00      13.06     142.47      48.39     190.86        5.46     1.35   0.932
  m166                     204.85       0.00       0.00      12.89     142.49      48.57     191.05        4.81     1.23   0.933
  m167                     204.85       0.00       0.00      12.60     142.51      48.85     191.37        3.81     1.04   0.934
  m168                     204.85       0.00       0.00      13.20     142.45      48.26     190.71        5.99     1.45   0.931
  m169                     204.85       0.00       0.00      12.78     142.50      48.68     191.18        4.42     1.16   0.933
  m170                     204.85       0.00       0.00      13.45     142.42      47.99     190.41        7.08     1.63   0.930
  m171                     204.85       0.00       0.00      12.42     142.53      49.04     191.56        3.22     0.91   0.935
  m172                     204.85       0.00       0.00      12.20     142.54      49.26     191.80        2.55     0.76   0.936
  m173                     204.85       0.00       0.00      12.83     142.49      48.63     191.12        4.59     1.19   0.933
  m174                     204.85       0.00       0.00      12.50     142.52      48.95     191.47        3.48     0.97   0.935
  m175                     204.85       0.00       0.00      13.14     142.46      48.32     190.78        5.76     1.41   0.931
  m176                     204.85       0.00       0.00      13.43     142.43      48.03     190.46        6.91     1.60   0.930
  m177                     204.85       0.00       0.00      13.08     142.47      48.37     190.84        5.53     1.37   0.932
  m178                     204.85       0.00       0.00      13.33     142.44      48.13     190.56        6.52     1.54   0.930
  m179                     204.85       0.00       0.00      13.31     142.44      48.14     190.59        6.44     1.52   0.930
  m180                     204.85       0.00       0.00      12.54     142.52      48.91     191.43        3.62     1.00   0.935
  m181                     204.85       0.00       0.00      13.45     142.40      47.84     190.24        7.72     1.74   0.929
  m182                     204.85       0.00       0.00      12.54     142.52      48.91     191.43        3.62     1.00   0.935
  m183                     204.85       0.00       0.00      12.52     142.52      48.94     191.46        3.52     0.98   0.935
  m184                     204.85       0.00       0.00      12.58     142.51      48.88     191.39        3.73     1.02   0.934
  m185                     204.85       0.00       0.00      12.15     142.55      49.31     191.86        2.40     0.72   0.937
  m186                     204.85       0.00       0.00      12.09     142.55      49.36     191.92        2.25     0.69   0.937
  m187                     204.85       0.00       0.00      12.25     142.54      49.20     191.74        2.70     0.79   0.936
  m188                     204.85       0.00       0.00      12.62     142.51      48.84     191.35        3.87     1.05   0.934
  m189                     204.85       0.00       0.00      13.44     142.43      48.02     190.45        6.95     1.61   0.930
  m190                     204.85       0.00       0.00      13.45     142.42      47.98     190.40        7.10     1.64   0.929
  m191                     204.85       0.00       0.00      12.80     142.49      48.65     191.15        4.51     1.18   0.933
  m192                     204.85       0.00       0.00      12.66     142.51      48.79     191.30        4.02     1.08   0.934
  m193                     204.85       0.00       0.00      12.53     142.52      48.92     191.44        3.58     0.99   0.935
  m194                     204.85       0.00       0.00      11.93     142.56      49.53     192.09        1.81     0.58   0.938
  m195                     204.85       0.00       0.00      12.01     142.56      49.45     192.01        2.02     0.63   0.937
  m196                     204.85       0.00       0.00      12.76     142.50      48.70     191.20        4.34     1.14   0.933
  m197                     204.85       0.00       0.00      12.67     142.51      48.78     191.29        4.06     1.09   0.934
  m198                     204.85       0.00       0.00      12.25     142.54      49.20     191.74        2.70     0.79   0.936
  m199                     204.85       0.00       0.00      12.47     142.52      48.99     191.51        3.37     0.94   0.935
  m200                     204.85       0.00       0.00      12.61     142.51      48.85     191.36        3.83     1.04   0.934
  m201                     204.85     146.90       0.00      13.49     245.22      91.79     337.01       10.78     2.33   0.958
  m202                     204.85       0.00       0.00      12.86     142.49      48.60     191.09        4.70     1.21   0.933
  m203                     204.85       0.00       0.00      12.45     142.53      49.01     191.54        3.29     0.93   0.935
  m204                     204.85       0.00       0.00      12.35     142.53      49.10     191.64        3.01     0.86   0.936
  m205                     204.85       0.00       0.00      12.33     142.53      49.13     191.66        2.93     0.85   0.936
  m206                     204.85       0.00       0.00      12.19     142.54      49.27     191.81        2.51     0.75   0.936
  m207                     204.85       0.00       0.00      12.25     142.54      49.21     191.75        2.68     0.79   0.936
  m208                     204.85       0.00       0.00      12.70     142.50      48.76     191.26        4.13     1.10   0.934
  m209                     204.85       0.00       0.00      13.45     142.42      47.97     190.39        7.16     1.65   0.929
  m210                     204.85       0.00       0.00      13.23     142.45      48.22     190.67        6.12     1.47   0.931
  m211                     204.85       0.00       0.00      12.43     142.53      49.02     191.55        3.26     0.92   0.935
  m218                     204.85       0.00       0.00      11.92     142.56      49.54     192.10        1.79     0.57   0.938
  m219                     204.85       0.00       0.00      12.48     142.52      48.98     191.50        3.41     0.95   0.935
  m220                     204.85       0.00       0.00      13.45     142.33      47.37     189.71        9.81     2.07   0.926
  m221                     204.85       0.00       0.00      11.94     142.56      49.52     192.08        1.82     0.58   0.938
  m222                     204.85       0.00       0.00      12.75     142.50      48.71     191.21        4.30     1.14   0.933
  m223                     204.85       0.00       0.00      13.45     142.25      46.88     189.13       12.22     2.41   0.923
  m224                     204.85       0.00       0.00      12.32     142.54      49.14     191.68        2.89     0.84   0.936
  m225                     204.85       0.00       0.00      12.80     142.50      48.66     191.15        4.49     1.17   0.933
  m226                     204.85       0.00       0.00      12.42     142.53      49.04     191.56        3.22     0.91   0.935
  m227                     204.85       0.00       0.00      12.79     142.50      48.66     191.16        4.47     1.17   0.933
  m228                     204.85       0.00       0.00      11.87     142.57      49.58     192.15        1.67     0.55   0.938
  m229                     204.85       0.00       0.00      12.63     142.51      48.83     191.34        3.90     1.06   0.934
  m230                     204.85       0.00       0.00      13.45     142.39      47.75     190.14        8.12     1.81   0.928
  m231                     204.85       0.00       0.00      12.43     142.53      49.03     191.56        3.24     0.92   0.935
  m232                     204.85       0.00       0.00      12.56     142.52      48.90     191.42        3.66     1.00   0.934
  m233                     204.85       0.00       0.00      12.75     142.50      48.71     191.21        4.30     1.14   0.933
  m234                     204.85       0.00       0.00      13.20     142.45      48.26     190.71        5.99     1.45   0.931
  m235                     204.85       0.00       0.00      12.97     142.48      48.49     190.97        5.10     1.29   0.932
  m236                     204.85       0.00       0.00      12.63     142.51      48.83     191.34        3.90     1.06   0.934
  m237                     204.85       0.00       0.00      13.05     142.47      48.40     190.87        5.42     1.35   0.932
  m238                     204.85       0.00       0.00      13.45     142.33      47.38     189.71        9.79     2.06   0.926
  m239                     204.85       0.00       0.00      13.39     142.43      48.07     190.50        6.74     1.57   0.930
  m240                     204.85       0.00       0.00      12.76     142.50      48.70     191.20        4.34     1.14   0.933
  m241                     204.85       0.00       0.00      12.44     142.53      49.02     191.54        3.28     0.92   0.935
  m242                     204.85       0.00       0.00      12.61     142.51      48.85     191.36        3.83     1.04   0.934
  m243                     204.85       0.00       0.00      12.32     142.54      49.14     191.68        2.89     0.84   0.936
  m244                     204.85       0.00       0.00      12.65     142.51      48.81     191.32        3.96     1.07   0.934
  m245                     204.85       0.00       0.00      13.44     142.43      48.02     190.44        6.97     1.61   0.930
  m246                     204.85       0.00       0.00      13.02     142.47      48.43     190.91        5.31     1.32   0.932
  m247                     204.85       0.00       0.00      13.45     142.34      47.43     189.78        9.53     2.03   0.926
  m248                     204.85       0.00       0.00      12.10     142.55      49.36     191.91        2.26     0.69   0.937
  m249                     204.85       0.00       0.00      12.22     142.54      49.24     191.78        2.61     0.77   0.936
  m250                     204.85       0.00       0.00      12.47     142.52      48.99     191.51        3.37     0.94   0.935
  m251                     204.85       0.00       0.00      12.53     142.52      48.93     191.45        3.56     0.98   0.935
  m252                     204.85       0.00       0.00      12.37     142.53      49.09     191.62        3.05     0.87   0.935
  m253                     204.85       0.00       0.00      12.27     142.54      49.18     191.72        2.76     0.81   0.936
  m254                     204.85       0.00       0.00      13.24     142.45      48.21     190.66        6.16     1.47   0.931
  m255                     204.85       0.00       0.00      13.42     142.43      48.03     190.46        6.89     1.60   0.930
  m256                     204.85       0.00       0.00      13.45     142.42      47.98     190.40        7.12     1.64   0.929
  m257                     204.85       0.00       0.00      13.39     142.43      48.07     190.50        6.76     1.58   0.930
  m258                     204.85       0.00       0.00      12.23     142.54      49.22     191.77        2.65     0.78   0.936
  m259                     204.85       0.00       0.00      12.48     142.52      48.98     191.50        3.41     0.95   0.935
  m260                     204.85       0.00       0.00      12.56     142.52      48.90     191.42        3.66     1.00   0.934
  m261                     204.85       0.00       0.00      12.75     142.50      48.70     191.20        4.32     1.14   0.933
  m262                     204.85       0.00       0.00      12.29     142.54      49.17     191.71        2.80     0.82   0.936
  m263                     204.85       0.00       0.00      13.22     142.45      48.23     190.69        6.08     1.46   0.931
  m264                     204.85       0.00       0.00      13.02     142.47      48.43     190.91        5.31     1.32   0.932
  m265                     204.85       0.00       0.00      12.40     142.53      49.06     191.59        3.14     0.89   0.935
  m266                     204.85       0.00       0.00      13.45     142.23      46.79     189.02       12.66     2.47   0.923
  m267                     204.85       0.00       0.00      12.76     142.50      48.70     191.20        4.34     1.14   0.933
  m268                     204.85       0.00       0.00      12.91     142.48      48.54     191.03        4.91     1.25   0.933
  m269                     204.85       0.00       0.00      12.95     142.48      48.51     190.99        5.02     1.27   0.932
  m271                     204.85       0.00       0.00      13.07     142.47      48.38     190.85        5.50     1.36   0.932
  m275                     204.85       0.00       0.00      13.00     142.48      48.45     190.93        5.23     1.31   0.932
  m277                     204.85       0.00       0.00      13.45     142.37      47.58     189.94        8.87     1.92   0.927
  m278                     204.85       0.00       0.00      12.94     142.48      48.52     191.00        4.99     1.27   0.932
  m279                     204.85       0.00       0.00      13.10     142.47      48.36     190.83        5.59     1.38   0.932
  m280                     204.85       0.00       0.00      13.45     142.39      47.75     190.15        8.08     1.80   0.928
  m281                     204.85       0.00       0.00      13.45     142.34      47.39     189.73        9.71     2.05   0.926
  m282                     204.85       0.00       0.00      13.45     141.97      45.65     187.62       19.01     3.28   0.916
  m283                     204.85       0.00       0.00      13.45     142.29      47.09     189.37       11.19     2.27   0.924
  m284                     204.85       0.00       0.00      13.45     142.40      47.82     190.22        7.80     1.75   0.929
  m285                     204.85       0.00       0.00      13.00     142.48      48.45     190.93        5.23     1.31   0.932
  m286                     204.85       0.00       0.00      13.45     142.40      47.79     190.18        7.93     1.78   0.928
  m287                     204.85       0.00       0.00      12.61     142.51      48.85     191.36        3.83     1.04   0.934
  m288                     204.85       0.00       0.00      12.94     142.48      48.52     191.00        5.00     1.27   0.932
  m289                     204.85       0.00       0.00      12.02     142.56      49.43     191.99        2.05     0.64   0.937
  m290                     204.85       0.00       0.00      11.94     142.56      49.52     192.08        1.82     0.58   0.938
  m291                     204.85       0.00       0.00      12.09     142.55      49.36     191.92        2.25     0.69   0.937
  m292                     204.85       0.00       0.00      12.17     142.55      49.29     191.84        2.46     0.74   0.936
  m293                     204.85       0.00       0.00      12.50     142.52      48.95     191.47        3.48     0.97   0.935
  m294                     204.85       0.00       0.00      12.55     142.52      48.91     191.42        3.64     1.00   0.934
  m295                     204.85       0.00       0.00      12.35     142.53      49.10     191.64        3.01     0.86   0.936
  m296                     204.85       0.00       0.00      13.45     142.38      47.66     190.03        8.51     1.87   0.928
  m297                     204.85       0.00       0.00      12.38     142.53      49.07     191.60        3.10     0.89   0.935
  m298                     204.85       0.00       0.00      12.02     142.56      49.44     192.00        2.04     0.63   0.937
  m299                     204.85       0.00       0.00      11.75     142.57      49.70     192.28        1.38     0.47   0.939
  m300                     204.85       0.00       0.00      12.80     142.50      48.66     191.15        4.49     1.17   0.933
  m301                     204.85       0.00       0.00      12.21     142.54      49.25     191.79        2.57     0.76   0.936
  m302                     204.85       0.00       0.00      12.53     142.52      48.93     191.45        3.56     0.98   0.935
  m303                     204.85       0.00       0.00      12.43     142.53      49.03     191.56        3.24     0.92   0.935
  m304                     204.85       0.00       0.00      13.06     142.47      48.39     190.86        5.46     1.35   0.932
  m305                     204.85       0.00       0.00      13.02     142.47      48.44     190.91        5.29     1.32   0.932
  m306                     204.85       0.00       0.00      12.11     142.55      49.34     191.89        2.30     0.70   0.937
  m307                     204.85       0.00       0.00      12.58     142.51      48.87     191.39        3.75     1.02   0.934
  m308                     204.85       0.00       0.00      12.49     142.52      48.97     191.49        3.43     0.96   0.935
  m309                     204.85       0.00       0.00      13.03     142.47      48.42     190.90        5.35     1.33   0.932
  m310                     204.85       0.00       0.00      12.29     142.54      49.17     191.70        2.82     0.82   0.936
  m311                     204.85       0.00       0.00      12.30     142.54      49.16     191.70        2.84     0.83   0.936
  m312                     204.85       0.00       0.00      12.15     142.55      49.30     191.85        2.42     0.73   0.937
  m313                     204.85       0.00       0.00      12.38     142.53      49.07     191.60        3.10     0.89   0.935
  m314                     204.85       0.00       0.00      12.30     142.54      49.15     191.69        2.86     0.83   0.936
  m315                     204.85       0.00       0.00      12.53     142.52      48.93     191.45        3.56     0.98   0.935
  m316                     204.85       0.00       0.00      12.85     142.49      48.61     191.10        4.66     1.21   0.933
  m317                     204.85       0.00       0.00      12.52     142.52      48.93     191.45        3.54     0.98   0.935
  m318                     204.85       0.00       0.00      13.02     142.47      48.43     190.91        5.31     1.32   0.932
  m319                     204.85       0.00       0.00      12.40     142.53      49.05     191.58        3.16     0.90   0.935
  m320                     204.85       0.00       0.00      12.51     142.52      48.95     191.47        3.50     0.97   0.935
  m321                     204.85       0.00       0.00      12.57     142.52      48.89     191.40        3.69     1.01   0.934
  m322                     204.85       0.00       0.00      13.45     142.24      46.84     189.08       12.42     2.44   0.923
  m323                     204.85       0.00       0.00      12.45     142.53      49.01     191.54        3.29     0.93   0.935
  m324                     204.85       0.00       0.00      12.72     142.50      48.74     191.24        4.21     1.12   0.934
  m325                     204.85       0.00       0.00      13.08     142.47      48.37     190.84        5.53     1.37   0.932
  m326                     204.85       0.00       0.00      12.42     142.53      49.04     191.56        3.22     0.91   0.935
  m327                     204.85       0.00       0.00      13.45     142.26      46.93     189.19       11.96     2.37   0.924
  m328                     204.85       0.00       0.00      12.71     142.50      48.75     191.25        4.17     1.11   0.934
  m329                     204.85       0.00       0.00      12.71     142.50      48.75     191.25        4.17     1.11   0.934
  m330                     204.85       0.00       0.00      12.77     142.50      48.68     191.18        4.40     1.15   0.933
  m331                     204.85       0.00       0.00      12.50     142.52      48.95     191.47        3.48     0.97   0.935
  m332                     204.85       0.00       0.00      12.98     142.48      48.48     190.96        5.14     1.29   0.932
  m333                     204.85       0.00       0.00      12.48     142.52      48.98     191.50        3.41     0.95   0.935
  m334                     204.85       0.00       0.00      12.00     142.56      49.46     192.01        2.00     0.62   0.937
  m335                     204.85       0.00       0.00      12.26     142.54      49.20     191.74        2.72     0.80   0.936
  m336                     204.85       0.00       0.00      12.50     142.52      48.95     191.47        3.48     0.97   0.935
  m337                     204.85       0.00       0.00      12.56     142.52      48.90     191.42        3.66     1.00   0.934
  m338                     204.85       0.00       0.00      12.91     142.48      48.54     191.03        4.91     1.25   0.933
  m339                     204.85       0.00       0.00      13.00     142.48      48.45     190.93        5.23     1.31   0.932
  m340                     204.85       0.00       0.00      13.45     142.40      47.79     190.19        7.91     1.77   0.928
  m341                     204.85       0.00       0.00      13.31     142.44      48.15     190.59        6.42     1.52   0.930
  m342                     204.85       0.00       0.00      13.45     142.38      47.67     190.04        8.48     1.86   0.928
  m343                     204.85       0.00       0.00      13.34     142.44      48.12     190.55        6.56     1.54   0.930
  m344                     204.85       0.00       0.00      12.55     142.52      48.91     191.42        3.64     1.00   0.934
  m345                     204.85       0.00       0.00      13.45     142.39      47.73     190.12        8.18     1.81   0.928
  m346                     204.85       0.00       0.00      13.42     142.43      48.04     190.47        6.88     1.60   0.930
  m347                     204.85       0.00       0.00      12.49     142.52      48.96     191.49        3.45     0.96   0.935
  m348                     204.85       0.00       0.00      11.75     142.57      49.71     192.29        1.37     0.47   0.939
  m349                     204.85       0.00       0.00      11.95     142.56      49.51     192.07        1.86     0.59   0.938
  m350                     204.85       0.00       0.00      12.23     142.54      49.23     191.77        2.63     0.78   0.936
  m351                     204.85       0.00       0.00      12.12     142.55      49.34     191.89        2.32     0.70   0.937
  m352                     204.85       0.00       0.00      12.60     142.51      48.86     191.37        3.79     1.03   0.934
  m353                     204.85       0.00       0.00      12.50     142.52      48.95     191.47        3.48     0.97   0.935
  m354                     204.85     107.56       0.00      13.49     217.71      80.12     297.82        9.65     2.15   0.953
  m355                     204.85       0.00       0.00      12.19     142.54      49.27     191.81        2.51     0.75   0.936
  m356                     204.85       0.00       0.00      12.04     142.56      49.42     191.98        2.09     0.65   0.937
  m357                     204.85       0.00       0.00      12.82     142.49      48.64     191.13        4.57     1.19   0.933
  m358                     204.85       0.00       0.00      11.69     142.58      49.76     192.34        1.25     0.44   0.939
  m359                     204.85       0.00       0.00      11.93     142.56      49.53     192.09        1.81     0.58   0.938
  m360                     204.85       0.00       0.00      13.45     142.33      47.35     189.68        9.92     2.08   0.926
  m361                     204.85       0.00       0.00      13.45     142.28      47.06     189.34       11.34     2.29   0.924
  m362                     204.85       0.00       0.00      12.27     142.54      49.18     191.72        2.76     0.81   0.936
  m363                     204.85       0.00       0.00      12.30     142.54      49.16     191.70        2.84     0.83   0.936
  m364                     204.85       0.00       0.00      12.20     142.54      49.26     191.80        2.55     0.76   0.936
  m365                     204.85       0.00       0.00      12.35     142.53      49.11     191.64        2.99     0.86   0.936
  m366                     204.85       0.00       0.00      12.69     142.51      48.77     191.27        4.11     1.10   0.934
  m367                     204.85       0.00       0.00      12.22     142.54      49.24     191.78        2.61     0.77   0.936
  m368                     204.85       0.00       0.00      12.06     142.55      49.40     191.95        2.15     0.66   0.937
  m369                     204.85       0.00       0.00      12.40     142.53      49.05     191.58        3.16     0.90   0.935
  m370                     204.85       0.00       0.00      13.45     142.28      47.04     189.32       11.42     2.30   0.924
  m371                     204.85       0.00       0.00      13.00     142.48      48.46     190.94        5.21     1.31   0.932
  m372                     204.85       0.00       0.00      12.02     142.56      49.43     191.99        2.05     0.64   0.937
  m373                     204.85       0.00       0.00      12.34     142.53      49.12     191.65        2.97     0.86   0.936
  m374                     204.85       0.00       0.00      12.26     142.54      49.20     191.74        2.72     0.80   0.936
  m375                     204.85       0.00       0.00      12.43     142.53      49.03     191.56        3.24     0.92   0.935
  m376                     204.85       0.00       0.00      12.46     142.52      48.99     191.52        3.35     0.94   0.935
  m377                     204.85       0.00       0.00      12.14     142.55      49.32     191.86        2.38     0.72   0.937
  m378                     204.85       0.00       0.00      12.07     142.55      49.39     191.94        2.19     0.67   0.937
  m379                     204.85       0.00       0.00      12.60     142.51      48.86     191.37        3.79     1.03   0.934
  m380                     204.85       0.00       0.00      12.84     142.49      48.62     191.11        4.62     1.20   0.933
  m381                     204.85       0.00       0.00      12.72     142.50      48.73     191.23        4.23     1.12   0.934
  m382                     204.85       0.00       0.00      12.19     142.54      49.27     191.81        2.51     0.75   0.936
  m383                     204.85       0.00       0.00      12.04     142.56      49.42     191.98        2.09     0.65   0.937
  m384                     204.85       0.00       0.00      12.23     142.54      49.22     191.77        2.65     0.78   0.936
  m385                     204.85       0.00       0.00      12.71     142.50      48.74     191.25        4.19     1.11   0.934
  m386                     204.85       0.00       0.00      12.86     142.49      48.59     191.08        4.72     1.22   0.933
  m387                     204.85       0.00       0.00      12.04     142.55      49.41     191.97        2.11     0.65   0.937
  m388                     204.85       0.00       0.00      12.53     142.52      48.92     191.44        3.58     0.99   0.935
  m389                     204.85       0.00       0.00      12.46     142.52      49.00     191.52        3.33     0.94   0.935
  m390                     204.85       0.00       0.00      12.21     142.54      49.24     191.79        2.59     0.77   0.936
  m391                     204.85       0.00       0.00      12.47     142.52      48.98     191.51        3.39     0.95   0.935
  m392                     204.85       0.00       0.00      12.63     142.51      48.83     191.34        3.90     1.06   0.934
  m393                     204.85       0.00       0.00      12.72     142.50      48.73     191.23        4.23     1.12   0.934
  m394                     204.85       0.00       0.00      12.82     142.49      48.64     191.13        4.57     1.19   0.933
  m395                     204.85       0.00       0.00      12.83     142.49      48.62     191.12        4.61     1.19   0.933
  m396                     204.85       0.00       0.00      12.51     142.52      48.95     191.47        3.50     0.97   0.935
  m397                     204.85       0.00       0.00      12.98     142.48      48.48     190.96        5.14     1.29   0.932
  m398                     204.85       0.00       0.00      12.67     142.51      48.79     191.29        4.04     1.08   0.934
  m399                     204.85       0.00       0.00      12.28     142.54      49.18     191.72        2.78     0.81   0.936
  m400                     204.85       0.00       0.00      12.54     142.52      48.92     191.44        3.60     0.99   0.935
  m401                     204.85       0.00       0.00      12.28     142.54      49.18     191.72        2.78     0.81   0.936
  m402                     204.85       0.00       0.00      12.35     142.53      49.10     191.64        3.01     0.86   0.936
  m403                     204.85       0.00       0.00      12.76     142.50      48.69     191.19        4.36     1.15   0.933
  m404                     204.85       0.00       0.00      12.49     142.52      48.96     191.49        3.45     0.96   0.935
  m405                     204.85       0.00       0.00      13.07     142.47      48.38     190.85        5.50     1.36   0.932
  m406                     204.85       0.00       0.00      12.30     142.54      49.15     191.69        2.86     0.83   0.936
  m407                     204.85       0.00       0.00      12.90     142.49      48.55     191.04        4.87     1.24   0.933
  m408                     204.85       0.00       0.00      12.94     142.48      48.52     191.00        4.99     1.27   0.932
  m409                     204.85     124.47       0.00      13.48     229.44      84.57     314.01       13.63     2.76   0.954
  m410                     204.85       0.00       0.00      13.05     142.47      48.41     190.88        5.40     1.34   0.932
  m411                     204.85       0.00       0.00      12.79     142.50      48.66     191.16        4.47     1.17   0.933
  m412                     204.85       0.00       0.00      12.44     142.53      49.02     191.54        3.28     0.92   0.935
  m413                     204.85       0.00       0.00      12.37     142.53      49.08     191.62        3.07     0.88   0.935
  m414                     204.85       0.00       0.00      12.58     142.51      48.87     191.39        3.75     1.02   0.934
  m415                     204.85       0.00       0.00      12.77     142.50      48.69     191.19        4.38     1.15   0.933
  m416                     204.85       0.00       0.00      12.11     142.55      49.34     191.89        2.30     0.70   0.937
  m417                     204.85       0.00       0.00      13.45     142.42      48.01     190.43        7.01     1.62   0.930
  m418                     204.85       0.00       0.00      13.45     142.04      45.91     187.95       17.48     3.09   0.918
  m419                     204.85       0.00       0.00      13.45     142.42      48.01     190.44        6.99     1.62   0.930
  m420                     204.85       0.00       0.00      13.45     142.40      47.84     190.24        7.72     1.74   0.929
  m421                     204.85       0.00       0.00      13.17     142.46      48.29     190.74        5.87     1.43   0.931
  m422                     204.85     228.60       0.00      13.49     302.42     116.35     418.77       10.76     2.31   0.966
  m423                     204.85       0.00       0.00      13.45     142.17      46.47     188.64       14.37     2.70   0.921
  m424                     204.85       0.00       0.00      13.45     142.36      47.56     189.92        8.96     1.94   0.927
  m425                     204.85       0.00       0.00      12.93     142.48      48.53     191.01        4.95     1.26   0.932
  m426                     204.85       0.00       0.00      13.45     142.40      47.80     190.20        7.87     1.77   0.928
  m427                     204.85       0.00       0.00      13.45     142.17      46.47     188.64       14.37     2.70   0.921
  m428                     204.85       0.00       0.00      13.09     142.47      48.37     190.84        5.55     1.37   0.932
  m429                     204.85       0.00       0.00      13.05     142.47      48.40     190.87        5.42     1.35   0.932
  m430                     204.85       0.00       0.00      12.23     142.54      49.22     191.77        2.65     0.78   0.936
  m431                     204.85       0.00       0.00      12.15     142.55      49.30     191.85        2.42     0.73   0.937
  m432                     204.85       0.00       0.00      12.70     142.50      48.76     191.26        4.13     1.10   0.934
  m433                     204.85       0.00       0.00      12.61     142.51      48.85     191.36        3.83     1.04   0.934
  m434                     204.85       0.00       0.00      12.71     142.50      48.75     191.25        4.17     1.11   0.934
  m435                     204.85       0.00       0.00      12.62     142.51      48.84     191.35        3.87     1.05   0.934
  m436                     204.85       0.00       0.00      13.33     142.44      48.13     190.56        6.52     1.54   0.930
  m437                     204.85       0.00       0.00      13.22     142.45      48.23     190.69        6.08     1.46   0.931
  m438                     204.85       0.00       0.00      12.06     142.55      49.40     191.95        2.15     0.66   0.937
  m439                     204.85       0.00       0.00      12.24     142.54      49.22     191.76        2.67     0.79   0.936
  m440                     204.85       0.00       0.00      12.72     142.50      48.73     191.23        4.23     1.12   0.934
  m441                     204.85       0.00       0.00      12.45     142.53      49.01     191.54        3.29     0.93   0.935
  m442                     204.85       0.00       0.00      13.08     142.47      48.38     190.85        5.52     1.36   0.932
  m443                     204.85       0.00       0.00      13.22     142.45      48.24     190.69        6.06     1.46   0.931
  m444                     204.85       0.00       0.00      13.32     142.44      48.13     190.57        6.48     1.53   0.930
  m445                     204.85       0.00       0.00      12.35     142.53      49.10     191.64        3.01     0.86   0.936
  m446                     204.85       0.00       0.00      12.64     142.51      48.82     191.33        3.92     1.06   0.934
  m447                     204.85       0.00       0.00      12.58     142.51      48.87     191.39        3.75     1.02   0.934
  m448                     204.85       0.00       0.00      12.58     142.51      48.87     191.39        3.75     1.02   0.934
  m449                     204.85       0.00       0.00      13.40     142.43      48.06     190.49        6.80     1.58   0.930
  m450                     204.85       0.00       0.00      13.45     142.42      48.00     190.43        7.03     1.62   0.930
  m451                     204.85       0.00       0.00      12.46     142.52      49.00     191.52        3.33     0.94   0.935
  m452                     204.85       0.00       0.00      12.70     142.50      48.75     191.26        4.15     1.11   0.934
  m453                     204.85       0.00       0.00      13.19     142.46      48.27     190.72        5.95     1.44   0.931
  m454                     204.85       0.00       0.00      12.70     142.50      48.75     191.26        4.15     1.11   0.934
  m455                     204.85       0.00       0.00      12.99     142.48      48.47     190.95        5.17     1.30   0.932
  m456                     204.85       0.00       0.00      13.45     142.35      47.48     189.83        9.32     1.99   0.927
  m457                     204.85       0.00       0.00      13.45     142.36      47.57     189.94        8.89     1.93   0.927
  m458                     204.85       0.00       0.00      13.06     142.47      48.39     190.86        5.46     1.35   0.932
  m459                     204.85       0.00       0.00      11.99     142.56      49.47     192.03        1.96     0.62   0.937
  m460                     204.85       0.00       0.00      13.45     142.20      46.63     188.83       13.50     2.59   0.922
  m461                     204.85       0.00       0.00      13.45     142.38      47.68     190.06        8.42     1.85   0.928
  yh1                      204.85       0.00       0.00      13.45     142.36      47.57     189.93        8.91     1.93   0.927
  yh2                      204.85       0.00       0.00      13.45     142.17      46.46     188.63       14.41     2.71   0.921
  yh3                      204.85     460.71       0.00      13.48     463.74     182.66     646.40       45.57     6.37   0.971
  yh4                      204.85     470.28       0.00      13.48     470.91     186.60     657.51       32.48     5.04   0.974
  yh5                      204.85     307.27       0.00      13.48     357.06     138.29     495.35       23.23     3.95   0.967
  yh6                      204.85       0.00       0.00      12.40     142.53      49.05     191.58        3.16     0.90   0.935
  yh7                      204.85     216.51       0.00      12.83     294.07     113.58     407.65        5.95     1.49   0.967
  yh8                      204.85     383.98       0.00      13.20     411.27     163.45     574.72        8.91     2.01   0.976
  yh9                      204.85     412.41       0.00      13.50     431.11     171.49     602.61       13.02     2.66   0.976
  yh10                     204.85     227.56       0.00      13.48     301.44     114.61     416.05       23.80     4.15   0.962
  yh11                     204.85     189.15       0.00      13.49     274.73     104.00     378.73       14.96     2.98   0.961
  yh12                     204.85     215.23       0.00      13.12     293.14     112.90     406.05        7.47     1.77   0.967
  yh13                     204.85       0.00       0.00      12.65     142.51      48.81     191.32        3.96     1.07   0.934
  yh14                     204.85     165.47       0.00      13.27     258.29      97.83     356.12        8.16     1.90   0.962
  yh15                     204.85       0.00       0.00      12.60     142.51      48.86     191.37        3.79     1.03   0.934
  yh16                     204.85     445.63       0.00      13.50     454.37     181.54     635.91       11.64     2.46   0.978
  yh17                     204.85       0.00       0.00      12.97     142.48      48.48     190.96        5.12     1.29   0.932
  yh18                     204.85       0.00       0.00      12.76     142.50      48.69     191.19        4.36     1.15   0.933
  yh19                     204.85       0.00       0.00      12.41     142.53      49.05     191.58        3.18     0.90   0.935
  yh20                     204.85       0.00       0.00      12.09     142.55      49.36     191.92        2.25     0.69   0.937
  yh21                     204.85     175.36       0.00      12.76     265.27     101.30     366.57        5.57     1.42   0.964
  yh22                     204.85     167.32       0.00      13.49     259.52      97.86     357.38       11.90     2.53   0.960
  yh23                     204.85       0.00       0.00      12.57     142.52      48.89     191.40        3.69     1.01   0.934
  yh24                     204.85     710.05       0.00      13.51     639.38     260.23     899.61       15.47     3.02   0.983
  yh25                     204.85      90.40       0.00      13.48     205.62      74.49     280.11       12.21     2.55   0.949
  yh26                     204.85       0.00       0.00      12.64     142.51      48.82     191.32        3.94     1.06   0.934
  yh27                     204.85     152.82       0.00      13.49     249.37      93.54     342.91       10.97     2.36   0.959
  yh28                     204.85       0.00       0.00      12.91     142.48      48.55     191.03        4.89     1.25   0.933
  yh29                     204.85       0.00       0.00      12.79     142.50      48.67     191.16        4.45     1.17   0.933
  yh30                     204.85     197.96       0.00      13.35     281.02     107.49     388.51        8.74     1.99   0.965
  yh31                     204.85       0.00       0.00      12.60     142.51      48.86     191.37        3.79     1.03   0.934
  yh32                     204.85       0.00       0.00      12.70     142.50      48.75     191.26        4.15     1.11   0.934
  yh33                     204.85       0.00       0.00      12.50     142.52      48.96     191.48        3.47     0.96   0.935
  yh34                     204.85       0.00       0.00      12.94     142.48      48.52     191.00        4.99     1.27   0.932
  yh35                     204.85       0.00       0.00      12.88     142.49      48.58     191.07        4.78     1.23   0.933
  yh36                     204.85       0.00       0.00      12.37     142.53      49.08     191.62        3.07     0.88   0.935
  yh37                     204.85       0.00       0.00      12.42     142.53      49.04     191.57        3.20     0.91   0.935
  yh38                     204.85       0.00       0.00      12.24     142.54      49.22     191.76        2.67     0.79   0.936
  yh39                     204.85       0.00       0.00      13.45     142.39      47.71     190.10        8.27     1.83   0.928
  yh40                     204.85     347.44       0.00      13.50     385.56     151.67     537.23       12.79     2.59   0.973
  yh41                     204.85       0.00       0.00      12.68     142.51      48.78     191.28        4.07     1.09   0.934
  yh42                     204.85       0.00       0.00      13.45     142.40      47.81     190.21        7.84     1.76   0.929
  yh43                     204.85     300.25       0.00      13.50     352.52     137.53     490.06       12.79     2.60   0.970
  yh44                     204.85       0.00       0.00      12.50     142.52      48.96     191.48        3.47     0.96   0.935
  yh45                     204.85       0.00       0.00      12.64     142.51      48.82     191.33        3.92     1.06   0.934
  yh46                     204.85       0.00       0.00      12.78     142.50      48.67     191.17        4.44     1.16   0.933
  yh47                     204.85     187.67       0.00      13.21     273.83     104.55     378.38        7.91     1.85   0.964
  yh48                     204.85     167.92       0.00      13.11     260.02      98.73     358.75        7.28     1.74   0.962
  yh49                     204.85       0.00       0.00      12.48     142.52      48.98     191.50        3.41     0.95   0.935
  yh50                     204.85     164.26       0.00      13.49     257.41      97.22     354.63        9.58     2.13   0.961
  yh51                     204.85       0.00       0.00      12.78     142.50      48.67     191.17        4.44     1.16   0.933
  yh52                     204.85       0.00       0.00      12.75     142.50      48.70     191.20        4.32     1.14   0.933
  yh53                     204.85       0.00       0.00      12.54     142.52      48.92     191.44        3.60     0.99   0.935
  yh54                     204.85     246.93       0.00      13.16     315.32     122.38     437.70        7.66     1.79   0.969
  yh55                     204.85     339.53       0.00      12.79     380.19     150.53     530.72        5.63     1.41   0.975
  yh56                     204.85       0.00       0.00      13.40     142.43      48.06     190.49        6.80     1.58   0.930
  yh57                     204.85       0.00       0.00      12.71     142.50      48.75     191.25        4.17     1.11   0.934
  yh58                     204.85     232.73       0.00      13.50     305.31     117.62     422.94       10.57     2.28   0.967
  yh59                     204.85       0.00       0.00      13.15     142.46      48.30     190.76        5.82     1.42   0.931
  yh60                     204.85       0.00       0.00      12.13     142.55      49.33     191.88        2.34     0.71   0.937
  yh61                     204.85       0.00       0.00      13.45     142.32      47.28     189.60       10.24     2.13   0.926
  yh62                     204.85       0.00       0.00      13.33     142.44      48.13     190.57        6.50     1.53   0.930
  yh63                     204.85     266.63       0.00      13.49     328.84     126.80     455.64       17.50     3.26   0.966
  yh64                     204.85     235.45       0.00      13.49     307.19     118.26     425.45       11.74     2.46   0.966
  yh65                     204.85       0.00       0.00      13.13     142.46      48.33     190.79        5.72     1.40   0.931
  yh66                     204.85       0.00       0.00      12.76     142.50      48.69     191.19        4.36     1.15   0.933
  yh67                     204.85       0.00       0.00      12.68     142.51      48.78     191.28        4.07     1.09   0.934
  yh68                     204.85       0.00       0.00      12.37     142.53      49.08     191.62        3.07     0.88   0.935
  yh69                     204.85       0.00       0.00      12.29     142.54      49.17     191.70        2.82     0.82   0.936
  yh70                     204.85       0.00       0.00      12.19     142.54      49.27     191.81        2.51     0.75   0.936
  yh71                     204.85       0.00       0.00      12.39     142.53      49.07     191.60        3.12     0.89   0.935
  yh72                     204.85       0.00       0.00      11.96     142.56      49.50     192.06        1.88     0.60   0.938
  yh73                     204.85       0.00       0.00      12.77     142.50      48.68     191.18        4.40     1.15   0.933
  yh74                     204.85       0.00       0.00      13.15     142.46      48.31     190.77        5.78     1.41   0.931
  yh75                     204.85     169.40       0.00      13.49     260.97      98.56     359.53       10.82     2.33   0.961
  yh76                     204.85       0.00       0.00      12.97     142.48      48.49     190.97        5.10     1.29   0.932
  yh77                     204.85       0.00       0.00      12.74     142.50      48.72     191.22        4.26     1.13   0.933
  yh78                     204.85     186.21       0.00      13.34     272.80     103.98     376.78        8.63     1.97   0.963
  yh79                     204.85       0.00       0.00      13.06     142.47      48.40     190.87        5.44     1.35   0.932
  yh80                     204.85       0.00       0.00      13.45     142.38      47.66     190.04        8.49     1.87   0.928
  yh81                     204.85       0.00       0.00      13.02     142.47      48.43     190.91        5.31     1.32   0.932
  yh82                     204.85       0.00       0.00      12.76     142.50      48.69     191.19        4.36     1.15   0.933
  yh83                     204.85     199.96       0.00      13.31     282.43     108.13     390.56        8.51     1.95   0.965
  yh84                     204.85     284.79       0.00      13.49     341.62     132.42     474.04       18.01     3.40   0.968
  yh85                     204.85     564.68       0.00      13.49     537.44     215.96     753.40       24.03     4.17   0.979
  yh86                     204.85       0.00       0.00      13.13     142.46      48.33     190.79        5.70     1.40   0.931
  yh87                     204.85       0.00       0.00      13.45     142.37      47.58     189.95        8.85     1.92   0.927
  yh88                     204.85       0.00       0.00      13.45     142.41      47.90     190.31        7.44     1.69   0.929
  yh89                     204.85       0.00       0.00      13.21     142.45      48.24     190.70        6.05     1.45   0.931
  yh90                     204.85       0.00       0.00      12.87     142.49      48.58     191.07        4.76     1.22   0.933
  yh91                     204.85     180.17       0.00      13.49     268.53     101.85     370.38       10.48     2.27   0.962
  yh92                     204.85       0.00       0.00      12.97     142.48      48.49     190.97        5.10     1.29   0.932
  yh93                     204.85       0.00       0.00      12.85     142.49      48.61     191.10        4.66     1.21   0.933
  yh94                     204.85       0.00       0.00      12.93     142.48      48.53     191.01        4.97     1.26   0.932
  yh95                     204.85       0.00       0.00      12.67     142.51      48.78     191.29        4.06     1.09   0.934
  yh96                     204.85       0.00       0.00      12.92     142.48      48.54     191.02        4.93     1.26   0.933
  yh97                     204.85     117.06       0.00      13.48     224.28      82.44     306.72       12.91     2.66   0.953
  yh98                     204.85     143.91       0.00      13.49     243.13      90.88     334.02       10.82     2.33   0.958
  yh99                     204.85       0.00       0.00      13.20     142.45      48.26     190.71        5.99     1.45   0.931
  yh100                    204.85       0.00       0.00      13.45     142.24      46.83     189.06       12.50     2.45   0.923
  yh101                    204.85       0.00       0.00      13.45     142.38      47.66     190.03        8.51     1.87   0.928
  yh102                    204.85     184.34       0.00      13.48     271.07     101.29     372.36       25.13     4.30   0.957
  yh103                    204.85     167.73       0.00      13.49     259.77      97.80     357.57       12.44     2.58   0.960
  yh104                    204.85       0.00       0.00      13.16     142.46      48.30     190.75        5.84     1.42   0.931
  yh105                    204.85       0.00       0.00      13.45     142.39      47.76     190.16        8.04     1.79   0.928
  yh106                    204.85     142.11       0.00      13.48     241.64      89.17     330.81       18.72     3.45   0.953
  yh107                    204.85     197.79       0.00      13.48     280.65     106.10     386.75       17.67     3.30   0.961
  yh108                    204.85       0.00       0.00      13.45     142.36      47.54     189.90        9.04     1.95   0.927
  yh109                    204.85       0.00       0.00      13.45     142.28      47.07     189.35       11.29     2.28   0.924
  yh110                    204.85     221.28       0.00      13.48     296.98     112.75     409.73       20.90     3.70   0.962
  yh111                    204.85       0.00       0.00      13.45     142.37      47.60     189.97        8.78     1.91   0.927
  yh112                    204.85       0.00       0.00      12.96     142.48      48.50     190.97        5.08     1.28   0.932
  yh113                    204.85       0.00       0.00      12.43     142.53      49.02     191.55        3.26     0.92   0.935
  yh114                    204.85       0.00       0.00      13.45     142.40      47.78     190.18        7.95     1.78   0.928
  yh115                    204.85       0.00       0.00      13.45     142.34      47.39     189.72        9.75     2.06   0.926
  yh116                    204.85       0.00       0.00      13.07     142.47      48.39     190.86        5.48     1.36   0.932
  yh117                    204.85       0.00       0.00      12.59     142.51      48.87     191.38        3.77     1.03   0.934
  yh118                    204.85     106.80       0.00      13.48     217.16      79.74     296.90       10.48     2.28   0.953
  yh119                    204.85       0.00       0.00      13.45     142.36      47.52     189.87        9.15     1.97   0.927
  yh120                    204.85       0.00       0.00      13.39     142.43      48.07     190.50        6.74     1.57   0.930
  yh121                    204.85       0.00       0.00      13.11     142.46      48.35     190.81        5.65     1.39   0.931
  yh122                    204.85       0.00       0.00      13.21     142.45      48.25     190.70        6.03     1.45   0.931
  yh123                    204.85       0.00       0.00      12.50     142.52      48.96     191.48        3.47     0.96   0.935
  yh124                    204.85       0.00       0.00      12.85     142.49      48.61     191.10        4.66     1.21   0.933
  yh125                    204.85       0.00       0.00      12.64     142.51      48.82     191.33        3.92     1.06   0.934
  yh126                    204.85       0.00       0.00      13.05     142.47      48.40     190.87        5.42     1.35   0.932
  yh127                    204.85       0.00       0.00      12.66     142.51      48.80     191.31        4.00     1.07   0.934
  yh128                    204.85       0.00       0.00      12.64     142.51      48.82     191.32        3.94     1.06   0.934
  yh129                    204.85       0.00       0.00      12.62     142.51      48.84     191.35        3.87     1.05   0.934
  yh130                    204.85       0.00       0.00      12.48     142.52      48.98     191.50        3.41     0.95   0.935
[...]
  yg23                        2.85      2.85      2.89      1.12         0.01
  yg24                        2.88      2.89      2.90      0.82         0.01
  yg25                        2.90      2.90      2.95      0.01         0.01
  yg26                        2.95      2.95      3.26      0.01         0.01
  yg27                        3.26      3.26      3.33      0.33         0.32
  yg28                        3.20      3.20      3.26      0.48         0.02
  yg29                        3.18      3.18      3.20      2.79         0.02
  yg30                        3.15      3.15      3.18      2.81         0.01
  yg31                        0.14      0.14      0.27      0.01         0.01
  yg32                        0.27      0.27      2.91      0.01         0.01
  yg33                        3.05      3.05      3.12      0.10         0.11
  yg34                        3.12      3.12      3.21      0.01         0.01
  yg36                        2.89      2.89      2.95      0.01         0.01
  yg37                        2.95      2.95      3.01      0.01         0.01
  yg38                        3.83      3.83      3.99      0.02         0.01
  yg39                        3.46      3.46      4.26      0.01         0.01
  yg40                        3.01      3.01      3.19      0.01         0.01
  yg41                        3.63      3.63      3.96      0.01         0.01
  yg42                        0.01      0.01      0.03      0.01         0.01
  yg43                        3.19      3.19      3.36      0.01         0.01
  yg44                        3.44      3.44      3.54      0.01         0.01
  yg45                        3.54      3.54      3.64      0.01         0.01
  yg46                        3.64      3.64      3.78      1.07         0.01
  yg47                        3.78      3.78      4.14      0.01         0.01
  yg48                        3.21      3.21      3.22      2.79         0.01
  yg49                        3.22      3.22      3.46      0.01         0.01
  yg50                        3.16      3.16      3.46      0.01         0.01
  yg51                        3.46      3.46      3.57      0.01         0.01
  yg52                        3.51      3.51      3.70      0.01         0.01
  yg53                        3.70      3.70      4.48      0.01         0.01
  yg54                        3.30      3.30      3.41      0.01         0.01
  yg55                        3.41      3.41      3.74      0.01         0.01
  yg56                        3.37      3.37      3.74      0.12         0.01
  yg57                        3.74      3.74      4.48      0.01         0.01
  yg58                        4.37      4.37      4.84      2.18         0.01
  yg59                        4.83      4.84      4.93      2.84         0.01
  yg60                        3.42      3.42      3.65      0.01         0.01
  yg61                        3.65      3.65      5.11      0.01         0.01
  yg62                        3.41      3.44      3.50      1.91         1.81
  yg63                        3.50      3.50      3.71      0.01         0.01
  yg64                        3.71      3.71      4.89      0.01         0.01
  yg65                        2.53      2.53      2.63      0.29         0.01
  yg66                        2.63      2.63      2.77      0.01         0.01
  yg67                        2.76      2.77      2.76      4.86         2.76
  yg68                        2.76      2.76      2.98      0.01         0.01
  yg69                        2.98      2.98      3.15      0.01         0.01
  yg70                        3.17      3.17      3.41      0.01         0.01
  yg71                        3.40      3.40      3.79      0.10         0.10
  yg72                        2.20      2.20      2.24      0.01         0.01
  yg73                        2.24      2.24      2.39      0.01         0.01
  yg74                        2.39      2.39      2.44      0.01         0.01
  yg75                        2.44      2.44      2.50      0.01         0.01
  yg76                        2.50      2.50      2.54      0.01         0.01
  yg77                        2.54      2.54      2.59      0.59         0.62
  yg78                        2.59      2.59      2.74      0.94         0.93
  yg79                        2.74      2.74      2.86      1.06         1.04
  yg80                        2.46      2.46      2.51      0.22         0.22
  yg81                        2.51      2.51      2.86      0.01         0.01
  yg82                        2.86      2.86      2.91      1.59         1.39
  yg83                        2.91      2.91      2.99      1.55         1.36
  yg84                        2.40      2.40      2.43      0.73         0.51
  yg85                        2.43      2.43      2.51      0.01         0.01
  yg86                        1.01      1.01      2.51      0.01         0.01
  yg87                        2.51      2.51      2.63      1.23         1.09
  yg88                        2.63      2.63      3.24      0.12         0.12
  yg89                        0.50      0.50      0.82      0.01         0.01
  yg90                        0.82      0.82      2.01      0.01         0.05
  yg91                        2.01      2.01      2.57      0.01         0.01
  yg92                        2.57      2.57      4.19      0.01         0.01
  yg93                        2.40      2.40      2.57      0.37         0.29
  yg94                        2.28      2.28      2.40      0.01         0.01
  yg95                        4.17      4.19      4.38      0.48         0.31
  yg96                        3.42      3.42      4.19      0.01         0.01
  yg97                        3.13      3.13      3.42      2.19         0.01
  yg98                        0.83      0.83      1.81      0.01         0.01
  yg99                        1.65      1.65      2.45      0.01         0.01
  yg100                       0.41      0.41      0.55      0.01         0.01
  yg101                       0.55      0.55      0.81      0.01         0.01
  yg102                       0.81      0.81      1.68      0.28         0.23
  yg103                       1.66      1.68      2.11      0.58         0.47
  yg104                       0.01      0.01      6.95      0.01         0.01
  yg105                       0.97      0.97      2.25      0.11         0.09
  yg106                       2.08      2.12      2.15      0.45         0.28
  yg107                       0.01      0.01      3.87      0.01         0.01
  yg108                       3.87      3.87      4.27      3.31         0.01
  yg109                       0.64      0.64      1.58      0.09         0.08
  yg110                       2.56      2.56      3.55      0.01         0.01
  yg111                       1.58      1.58      3.55      0.01         0.01
  yg112                       3.55      3.55      3.99      0.47         0.46
  yg114                       3.69      3.72      4.03      0.73         0.43
  yg115                       3.39      4.03      3.39      6.37         3.39
  yg116                       3.29      3.29      3.40      0.01         0.01
  yg117                       3.38      3.40      3.39      4.35         2.61
  yg118                       3.39      3.39      3.72      0.01         0.01
  yg119                       3.39      3.39      3.43      0.05         0.01
  yg120                       3.43      3.43      3.47      0.25         0.03
  yg121                       3.47      3.47      3.56      0.70         0.58
  yg122                       3.34      3.34      3.60      0.01         0.01
  yg123                       3.60      3.60      3.78      0.01         0.01
  yg124                       3.78      3.78      3.91      0.01         0.01
  yg125                       3.91      3.91      3.99      0.01         0.01
  yg126                       3.95      3.99      3.95      4.98         3.93
  yg127                       3.95      3.95      4.03      0.83         0.82
  yg128                       4.03      4.03      4.29      0.01         0.01
  yg129                       4.20      4.29      4.20      4.50         3.32
  yg130                       4.09      4.20      4.10      4.47         3.60
  yg132                       3.13      4.10      3.23      3.78         2.44
  yg133                       3.49      3.49      3.67      0.01         0.01
  yg134                       3.67      3.67      3.79      0.01         0.01
  yg135                       3.79      3.79      4.18      0.01         0.01
  yg136                       3.15      3.15      3.29      0.01         0.01
  yg137                       3.29      3.29      4.18      0.01         0.01
  yg138                       3.81      3.81      3.98      0.21         0.22
  yg139                       3.98      3.98      4.07      0.37         0.38
  yg140                       4.07      4.07      4.15      1.32         1.30
  yg141                       3.81      4.15      3.81      4.52         3.81
  yg143                       2.99      3.81      3.12      4.17         2.77
  yg144                       3.30      3.30      3.39      0.11         0.10
  yg145                       3.39      3.39      3.44      0.50         0.02
  yg146                       4.09      4.09      4.19      2.80         0.03
  yg147                       3.82      3.82      4.19      0.01         0.01
  yg148                       3.44      3.44      4.12      0.01         0.01
  yg149                       4.12      4.12      4.51      0.20         0.21
  yg150                       4.49      4.51      4.50      2.67         1.39
  yg151                       2.82      4.27      2.82      5.45         2.81
  yg152                       2.32      2.33      2.36      1.08         0.09
  yg153                       2.36      2.36      2.46      0.18         0.01
  yg155                       2.18      2.18      2.64      0.01         0.01
  yg156                       2.12      2.12      2.18      0.01         0.01
  yg157                       2.18      2.18      2.29      0.01         0.01
  yg158                       3.34      3.34      3.77      0.01         0.01
  yg159                       3.67      3.77      3.67      4.22         3.67
  yg160                       3.57      3.67      3.57      2.55         1.97
  yg161                       2.65      3.05      2.84      0.89         0.10
  yg162                       2.77      2.84      2.83      0.95         0.04
  yg163                       2.82      2.83      2.86      1.00         0.05
  yg164                       2.86      2.86      3.02      0.21         0.02
  yg165                       2.81      2.81      3.10      0.01         0.01
  yg166                       3.05      3.10      3.08      3.15         2.09
  yg167                       3.08      3.08      3.14      2.35         1.49
  yg168                       3.14      3.14      3.42      0.40         0.14
  yg169                       2.46      2.46      2.57      0.44         0.01
  yg170                       2.57      2.57      2.66      0.01         0.01
  yg171                       2.66      2.66      2.71      0.14         0.11
  yg172                       2.71      2.71      2.93      0.01         0.01
  yg173                       2.77      2.77      3.01      0.01         0.01
  yg174                       3.01      3.01      3.05      2.84         1.96
  yg175                       3.05      3.05      3.16      0.40         0.33
  yg176                       3.16      3.16      3.22      0.11         0.17
  yg177                       3.22      3.22      3.68      0.01         0.02
  yg178                       3.65      3.66      3.74      1.42         1.20
  yg179                       3.62      3.74      3.71      2.70         1.69
  yg180                       2.75      2.84      2.81      2.73         1.72
  yg181                       2.78      2.81      2.86      2.39         1.64
  yg182                       2.88      2.91      3.30      0.28         0.17
  yg183                       2.84      2.86      2.91      0.32         0.16
  yg184                       2.82      2.86      2.86      1.99         1.38
  yg185                       2.60      2.69      2.60      4.95         2.57
  yg186                       2.59      2.60      2.66      2.35         2.00
  yg187                       2.66      2.66      3.28      0.01         0.01
  yg188                       3.21      3.28      3.26      3.28         0.23
  yg189                       3.16      3.26      3.23      3.49         0.36
  yg201                       3.25      3.25      3.65      0.01         0.01
  yg202                       3.65      3.65      3.65      4.30         0.48
  yg203                       2.98      2.98      3.65      0.01         0.01
  yg204                       2.57      2.57      2.74      0.01         0.01
  yg205                       2.67      2.67      2.91      2.29         2.30
  yg206                       2.54      2.91      3.41      0.65         0.15
  yg207                       3.54      3.54      3.63      0.01         0.09
  yg208                       3.63      3.63      3.67      0.33         0.25
  yg209                       3.67      3.67      3.73      1.14         0.15
  yg210                       3.73      3.73      3.75      1.80         0.26
  yg211                       3.71      3.75      3.76      0.93         0.26
  yg212                       3.72      3.76      3.78      0.89         0.22
  yg213                       3.78      3.78      3.86      0.01         0.04
  yg232                       2.77      2.77      2.90      0.24         0.23
  yg233                       2.84      2.90      3.00      2.04         1.85
  yg234                       2.92      2.92      3.08      0.01         0.01
  yg235                       3.08      3.08      3.21      0.48         0.45
  yg236                       3.21      3.21      3.35      0.10         0.11
  yg237                       3.35      3.35      3.44      0.27         0.27
  yg238                       3.44      3.44      5.99      0.01         0.01
  yg240                       2.99      2.99      3.06      0.59         0.18
  yg241                       3.06      3.06      3.24      0.18         0.12
  yg242                       3.24      3.24      3.72      0.24         0.25
  yg113                       3.86      3.86      4.01      0.01         0.01
  yg131                       3.98      4.01      3.98      7.14         2.65
  yg142                       3.98      3.98      4.02      0.01         0.01
  yg154                       4.02      4.02      4.06      0.01         0.03
  yg190                       4.06      4.06      4.10      0.01         0.04
  yg191                       4.10      4.10      4.14      0.01         0.04
  yg192                       4.14      4.14      4.16      0.01         0.07
  yg193                       4.16      4.16      4.20      0.01         0.06
  yg194                       4.19      4.20      4.22      0.01         0.57
  yg195                       4.19      4.22      4.19      7.07         3.09
  yg196                       4.19      4.19      4.24      0.01         0.02
  yg197                       4.19      4.24      4.19      7.68         3.67
  yg198                       4.19      4.19      4.25      0.01         0.07
  yg199                       4.20      4.25      4.20      4.58         2.90
  yg200                       4.19      4.20      4.23      0.16         0.15
  yg214                       3.90      3.90      3.92      0.01         0.03
  yg215                       4.22      4.27      4.22      8.21         4.11
  yg216                       4.20      4.22      4.20      2.30         2.37
  yg217                       4.18      4.20      4.18      2.42         2.54
  1                           4.15      4.18      4.15      4.88         3.36
  4                           4.15      4.15      4.27      0.01         0.01
  8                           3.39      3.41      3.39      3.96         3.23
  9                           4.27      4.50      4.27      5.49         4.17
  10                          4.19      4.19      4.50      0.01         0.01
  2                           1.46      1.46      2.59      0.01         0.01
  3                           2.59      2.59      3.11      0.01         0.01
  5                           3.11      3.11      3.27      0.53         0.62
  6                           3.21      3.27      3.32      2.56         2.06
  7                           3.31      3.32      3.46      0.51         0.23
  11                          3.46      3.46      3.53      0.56         0.23
  12                          3.53      3.53      5.99      0.01         0.01
  14                          3.10      3.10      3.20      0.10         0.01
  15                          3.19      3.20      3.29      0.58         0.16
  16                          3.29      3.29      4.09      0.01         0.01
  18                          3.14      3.14      3.24      0.01         0.01
  19                          3.24      3.24      3.39      0.03         0.04
  20                          3.39      3.39      3.53      0.41         0.30
  21                          2.48      2.53      2.67      0.38         0.09
  22                          2.52      2.52      2.61      0.01         0.01
  23                          1.46      1.46      2.52      0.01         0.01
  24                          2.97      2.97      3.04      1.12         0.01
  25                          2.97      2.97      3.10      1.03         1.04
  26                          3.80      3.80      4.08      0.03         0.04
  27                          3.14      3.14      4.08      0.01         0.01
  28                          5.55      5.55      5.63      0.01         0.01
  29                          5.63      5.63      5.64      0.21         0.01
  
  
  ***************
  Pumping Summary
  ***************
  
  ---------------------------------------------------------------------------------------------------------
                                                  Min       Avg       Max     Total     Power    % Time Off
                        Percent   Number of      Flow      Flow      Flow    Volume     Usage    Pump Curve
  Pump                 Utilized   Start-Ups       CMS       CMS       CMS  10^6 ltr     Kw-hr    Low   High
  ---------------------------------------------------------------------------------------------------------
  p1                      87.53           1      0.00      8.00      8.00   226.857   5317.04    0.0   21.8
  p2                      86.86           1      0.00      8.00      8.00   225.120   5271.71    0.0   22.0
  p3                      86.19           1      0.00      8.00      8.00   223.392   5226.61    0.0   22.2
  p4                      83.81           1      0.00      8.00      8.00   217.204   5056.14    0.0   20.7
  p5                      77.18           1      0.00      8.00      8.00   200.035   4578.82    0.0   15.2
  p6                      71.36           1      0.00      8.00      8.00   184.933   4163.49    0.0    9.7
  p7                      67.87           1      0.00      8.00      8.00   175.909   3914.30    0.0    5.2
  p8                      64.98           1      0.00      8.00      8.00   168.411   3708.54    0.0    1.5
  p9                      58.42           1      0.00      8.00      8.00   151.407   3251.79    0.0    0.1
  p10                     56.21           2      0.00      8.00      8.00   145.669   3098.69    0.0    0.0
  p11                     54.23           3      0.00      8.00      8.00   140.551   2962.78    0.0    0.0
  

  Analysis begun on:  Fri Mar  6 13:42:59 2026
  Analysis ended on:  Fri Mar  6 13:43:02 2026
  Total elapsed time: 00:00:03