
  EPA STORM WATER MANAGEMENT MODEL - VERSION 5.2 (Build 5.2.4)
  ------------------------------------------------------------

  WARNING 08: elevation drop exceeds length for Conduit 1611
  WARNING 02: maximum depth increased for Node 5040
  WARNING 02: maximum depth increased for Node 5049
  WARNING 02: maximum depth increased for Node 5071
  WARNING 02: maximum depth increased for Node 5083
  WARNING 02: maximum depth increased for Node JT1348
  
  ****************
  Analysis Options
  ****************
  Flow Units ............... GPM
  Process Models:
    Rainfall/Runoff ........ NO
    RDII ................... NO
    Snowmelt ............... NO
    Groundwater ............ NO
    Flow Routing ........... YES
    Ponding Allowed ........ NO
    Water Quality .......... NO
  Flow Routing Method ...... DYNWAVE
  Surcharge Method ......... EXTRAN
  Starting Date ............ 01/01/2002 00:00:00
  Ending Date .............. 01/01/2002 00:00:00
  Antecedent Dry Days ...... 5.0
  Report Time Step ......... 00:05:00
  Routing Time Step ........ 300.00 sec
  Variable Time Step ....... YES
  Maximum Trials ........... 8
  Number of Threads ........ 1
  Head Tolerance ........... 0.005000 ft
  
  
  **************************        Volume        Volume
  Flow Routing Continuity        acre-feet      10^6 gal
  **************************     ---------     ---------
  Dry Weather Inflow .......         0.950         0.310
  Wet Weather Inflow .......         0.000         0.000
  Groundwater Inflow .......         0.000         0.000
  RDII Inflow ..............         0.000         0.000
  External Inflow ..........         0.000         0.000
  External Outflow .........         1.983         0.646
  Flooding Loss ............        16.949         5.523
  Evaporation Loss .........         0.000         0.000
  Exfiltration Loss ........         0.000         0.000
  Initial Stored Volume ....         0.000         0.000
  Final Stored Volume ......         0.098         0.032
  Continuity Error (%) .....     -1902.614
  
  
  *************************
  Highest Continuity Errors
  *************************
  Node JT1413 (-12292.65%)
  Node JT1160 (-12245.67%)
  Node JT1560 (-9202.97%)
  Node 5166 (-5610.91%)
  Node 5150 (-4089.79%)
  
  
  ***************************
  Time-Step Critical Elements
  ***************************
  Link 1695 (66.05%)
  Link 1181 (33.49%)
  
  
  ********************************
  Highest Flow Instability Indexes
  ********************************
  Link 355 (8)
  Link 1693 (7)
  Link 1885 (4)
  Link 1649 (3)
  Link 1749 (3)
  
  
  *********************************
  Most Frequent Nonconverging Nodes
  *********************************
  Node 5002 (8.56%)
  Node 5030 (8.56%)
  Node 5047 (8.56%)
  Node JT1486 (1.02%)
  Node JT1485 (0.98%)
  
  
  *************************
  Routing Time Step Summary
  *************************
  Minimum Time Step           :     0.50 sec
  Average Time Step           :     3.16 sec
  Maximum Time Step           :   300.00 sec
  % of Time in Steady State   :     0.00
  Average Iterations per Step :     2.69
  % of Steps Not Converging   :     8.56
  Time Step Frequencies       :
     300.000 - 83.462 sec      :     0.00 %
     83.462 - 23.220 sec      :     0.00 %
     23.220 -  6.460 sec      :     0.00 %
      6.460 -  1.797 sec      :    96.64 %
      1.797 -  0.500 sec      :     3.35 %
  
  
  ******************
  Node Depth Summary
  ******************
  
  ---------------------------------------------------------------------------------
                                 Average  Maximum  Maximum  Time of Max    Reported
                                   Depth    Depth      HGL   Occurrence   Max Depth
  Node                 Type         Feet     Feet     Feet  days hr:min        Feet
  ---------------------------------------------------------------------------------
  5003                 JUNCTION     0.23     7.17  4058.45     0  00:05        4.04
  5004                 JUNCTION     0.47    10.05  4061.99     0  00:05       10.03
  5005                 JUNCTION     0.32    10.59  4063.13     0  00:05        2.36
  5006                 JUNCTION     0.30    11.65  4067.62     0  00:05       11.63
  5007                 JUNCTION     0.29     7.17  4067.40     0  00:06        2.11
  5008                 JUNCTION     0.31    11.20  4073.38     0  00:05       11.18
  5009                 JUNCTION     0.26     6.22  4072.10     0  00:06        1.56
  5010                 JUNCTION     0.28    11.83  4081.78     0  00:05        9.72
  5011                 JUNCTION     0.28    11.15  4084.14     0  00:05       11.13
  5012                 JUNCTION     0.29    12.73  4088.35     0  00:05       12.71
  5013                 JUNCTION     0.02     9.74  4089.19     0  00:05        9.72
  5014                 JUNCTION     0.03     0.77  4081.00     0  00:05        0.77
  5015                 JUNCTION     0.02     0.03  4083.04     0  08:00        0.03
  5016                 JUNCTION     0.01     0.02  4084.75     0  08:00        0.02
  5017                 JUNCTION     0.01     0.01  4088.65     0  08:00        0.01
  5018                 JUNCTION     0.01     0.02  4087.76     0  08:00        0.02
  5019                 JUNCTION     0.02     0.02  4085.39     0  08:00        0.02
  5021                 JUNCTION     0.21     1.10  4094.62     0  00:05        1.10
  5022                 JUNCTION     0.40     9.75  4100.61     0  00:05        9.73
  5023                 JUNCTION     0.29     9.29  4101.29     0  00:05        7.03
  5024                 JUNCTION     0.25     4.67  4092.57     0  00:18        4.13
  5025                 JUNCTION     0.12     0.77  4084.89     0  00:05        0.77
  5026                 JUNCTION     0.14     4.28  4080.50     0  00:05        4.28
  5027                 JUNCTION     0.12     7.80  4077.85     0  00:05        7.79
  5028                 JUNCTION     0.16     8.05  4072.94     0  00:05        8.04
  5031                 JUNCTION     0.24     5.55  4102.56     0  00:05        5.54
  5032                 JUNCTION     0.11     2.95  4101.01     0  00:27        2.28
  5034                 JUNCTION     0.16     3.68  4102.74     0  00:27        2.40
  5035                 JUNCTION     0.02     0.03  4105.33     0  00:05        0.03
  5036                 JUNCTION     0.33     2.15  4102.11     0  00:05        2.14
  5037                 JUNCTION     0.18     4.42  4104.69     0  00:20        2.93
  5038                 JUNCTION     0.29     0.82  4103.77     0  00:15        0.82
  5039                 JUNCTION     0.37     3.43  4107.89     0  00:12        1.93
  5040                 JUNCTION     8.59     8.83  4116.83     0  00:36        8.83
  5041                 JUNCTION     0.09     0.32  4105.90     0  00:27        0.32
  5042                 JUNCTION     0.02     0.03  4107.69     0  00:05        0.03
  5043                 JUNCTION     0.01     0.02  4111.25     0  08:00        0.02
  5044                 JUNCTION     0.01     0.01  4116.87     0  08:00        0.01
  5045                 JUNCTION     0.02     0.02  4114.51     0  08:00        0.02
  5046                 JUNCTION     0.01     0.02  4116.51     0  07:48        0.02
  5049                 JUNCTION     6.89     7.51  4087.61     0  00:05        7.50
  5050                 JUNCTION     0.24     6.00  4092.95     0  00:06        6.00
  5051                 JUNCTION     0.22     7.22  4101.33     0  00:06        7.22
  5052                 JUNCTION     0.24     9.13  4110.44     0  00:05        9.13
  5053                 JUNCTION     0.16     7.57  4119.81     0  00:07        7.57
  5054                 JUNCTION     0.14     7.77  4130.18     0  00:05        7.21
  5055                 JUNCTION     0.12     6.84  4137.28     0  00:05        6.84
  5056                 JUNCTION     0.05     9.89  4145.34     0  00:07        5.68
  5057                 JUNCTION     0.03     0.37  4152.50     0  00:06        0.28
  5058                 JUNCTION     0.09    12.17  4165.77     0  00:05        0.77
  5059                 JUNCTION     0.07    12.20  4169.47     0  00:05       12.18
  5060                 JUNCTION     0.04    10.45  4169.79     0  00:05       10.43
  5061                 JUNCTION     0.02     0.77  4168.39     0  00:05        0.77
  5062                 JUNCTION     0.02     6.07  4174.18     0  00:05        6.06
  5063                 JUNCTION     0.02     0.77  4169.79     0  00:05        0.77
  5064                 JUNCTION     0.02     0.03  4183.30     0  00:05        0.03
  5065                 JUNCTION     0.02     0.02  4186.65     0  07:51        0.02
  5066                 JUNCTION     0.01     0.02  4187.87     0  07:42        0.02
  5067                 JUNCTION     0.01     0.17  4185.91     0  00:05        0.17
  5068                 JUNCTION     0.01     0.01  4205.53     0  07:55        0.01
  5069                 JUNCTION     0.01     0.01  4195.80     0  08:00        0.01
  5070                 JUNCTION     0.11     7.40  4159.57     0  00:05        5.28
  5071                 JUNCTION     6.94     7.29  4147.42     0  00:09        7.28
  5072                 JUNCTION     0.85     7.68  4153.99     0  00:05        7.67
  5073                 JUNCTION     0.11     8.30  4164.73     0  00:05        8.29
  5074                 JUNCTION     0.06     8.50  4176.33     0  00:05        0.72
  5075                 JUNCTION     0.03     8.32  4190.87     0  00:05        8.31
  5076                 JUNCTION     0.03     0.48  4198.13     0  00:05        0.31
  5077                 JUNCTION     0.06    11.54  4216.14     0  00:05        8.73
  5078                 JUNCTION     0.01     5.71  4228.78     0  00:05        5.70
  5079                 JUNCTION     0.01     0.01  4283.14     0  08:00        0.01
  5080                 JUNCTION     0.01     0.01  4308.11     0  07:52        0.01
  5081                 JUNCTION     0.02     0.38  4219.56     0  00:05        0.13
  5082                 JUNCTION     0.02     8.59  4234.29     0  00:05        8.58
  5083                 JUNCTION     3.04     4.08  4235.72     1  00:00        4.08
  5084                 JUNCTION     0.31     1.75  4236.41     0  00:05        1.75
  5085                 JUNCTION     0.01     0.07  4246.59     0  00:05        0.07
  5086                 JUNCTION     0.01     0.01  4262.35     0  07:35        0.01
  5087                 JUNCTION     0.07     7.19  4476.70     0  00:05        7.18
  5088                 JUNCTION     0.10    11.18  4489.73     0  00:05        4.55
  5089                 JUNCTION     0.14     8.88  4488.92     0  00:05        8.87
  5090                 JUNCTION     0.03     7.86  4492.92     0  00:05        1.64
  5091                 JUNCTION     0.14    10.04  4491.56     0  00:05        6.92
  5092                 JUNCTION     0.16    13.20  4499.34     0  00:05       11.61
  5093                 JUNCTION     0.04     4.86  4491.80     0  00:05        2.74
  5094                 JUNCTION     0.03     2.20  4489.85     0  00:05        2.19
  5095                 JUNCTION     0.03     0.04  4488.62     0  00:09        0.04
  5096                 JUNCTION     0.01     0.04  4501.43     0  00:05        0.04
  5097                 JUNCTION     0.01     0.01  4509.38     0  07:32        0.01
  5098                 JUNCTION     0.02    12.20  4553.31     0  00:05        3.19
  5099                 JUNCTION     0.01     0.01  4548.37     0  08:00        0.01
  5100                 JUNCTION     0.01     0.01  4553.33     0  08:00        0.01
  5101                 JUNCTION     0.03     0.65  4531.63     0  00:06        0.13
  5102                 JUNCTION     0.02     0.38  4528.46     0  00:06        0.16
  5103                 JUNCTION     0.02     7.13  4524.52     0  00:05        7.12
  5104                 JUNCTION     0.03     7.05  4512.30     0  00:05        0.77
  5107                 JUNCTION     0.01     0.01  4556.33     0  08:00        0.01
  5108                 JUNCTION     0.02     0.77  4563.50     0  00:05        0.77
  5112                 JUNCTION     0.02     0.02  4583.71     0  08:00        0.02
  5114                 JUNCTION     0.22     0.25  4604.12     0  08:00        0.25
  5115                 JUNCTION     0.01     0.01  4605.48     0  08:00        0.01
  5116                 JUNCTION     0.01     0.02  4603.68     0  08:00        0.02
  5118                 JUNCTION     0.01     0.01  4636.85     0  08:00        0.01
  5119                 JUNCTION     0.01     0.01  4653.01     0  08:00        0.01
  5120                 JUNCTION     0.01     0.01  4650.10     0  08:00        0.01
  5121                 JUNCTION     0.19     2.74  4190.35     0  00:05        2.73
  5122                 JUNCTION     0.01     0.01  4191.31     0  08:00        0.01
  5123                 JUNCTION     0.21    11.01  4188.06     0  00:05       10.99
  5124                 JUNCTION     0.01     0.03  4176.67     0  00:05        0.03
  5125                 JUNCTION     0.17    11.67  4177.80     0  00:05        3.58
  5126                 JUNCTION     0.26    10.36  4177.87     0  00:05        0.70
  5127                 JUNCTION     0.17     1.10  4166.05     0  00:05        1.10
  5128                 JUNCTION     0.22     6.11  4161.51     0  00:05        6.10
  5129                 JUNCTION     0.01     0.01  4196.27     0  07:26        0.01
  5130                 JUNCTION     0.01     0.06  4188.80     0  00:05        0.06
  5131                 JUNCTION     0.02     0.77  4172.99     0  00:05        0.77
  5132                 JUNCTION     0.17    10.80  4172.12     0  00:05       10.78
  5133                 JUNCTION     0.14     5.07  4168.80     0  00:05        4.30
  5134                 JUNCTION     0.02     0.05  4170.54     0  00:05        0.05
  5135                 JUNCTION     0.01     0.01  4187.37     0  08:00        0.01
  5136                 JUNCTION     0.01     0.01  4193.04     0  07:24        0.01
  5137                 JUNCTION     0.01     0.05  4183.24     0  00:05        0.05
  5139                 JUNCTION     0.15     8.43  4166.11     0  00:05        8.42
  5140                 JUNCTION     0.16    10.00  4168.89     0  00:05        9.98
  5141                 JUNCTION     0.01     0.01  4185.72     0  08:00        0.01
  5142                 JUNCTION     0.01     0.04  4177.23     0  00:05        0.04
  5143                 JUNCTION     0.02     0.02  4163.54     0  00:10        0.02
  5144                 JUNCTION     0.19     6.68  4158.32     0  00:05        6.68
  5145                 JUNCTION     0.12     7.79  4163.70     0  00:05        4.82
  5146                 JUNCTION     0.00     0.01  4147.70     0  07:25        0.01
  5147                 JUNCTION     0.27    11.93  4158.24     0  00:05       11.91
  5148                 JUNCTION     0.18     9.30  4155.79     0  00:05        9.28
  5149                 JUNCTION     0.03     8.65  4163.23     0  00:05        0.77
  5150                 JUNCTION     0.02     3.08  4167.20     0  00:05        3.08
  5151                 JUNCTION     0.04     8.85  4164.09     0  00:05        8.84
  5152                 JUNCTION     0.01     0.02  4175.98     0  08:00        0.02
  5153                 JUNCTION     0.01     0.01  4189.32     0  08:00        0.01
  5154                 JUNCTION     0.34    13.15  4202.71     0  00:05        1.98
  5155                 JUNCTION     0.06     8.80  4202.74     0  00:05        8.78
  5156                 JUNCTION     0.04     9.95  4203.74     0  00:05        0.77
  5157                 JUNCTION     0.02     0.36  4202.17     0  00:05        0.05
  5159                 JUNCTION     0.01     0.02  4205.21     0  08:00        0.02
  5160                 JUNCTION     0.35    10.94  4202.02     0  00:05       10.92
  5161                 JUNCTION     0.34    12.35  4203.97     0  00:05       12.33
  5163                 JUNCTION     0.01     0.02  4208.43     0  08:00        0.02
  5164                 JUNCTION     0.34     5.12  4198.94     0  00:12        4.19
  5165                 JUNCTION     0.02     9.90  4206.20     0  00:05        9.88
  5166                 JUNCTION     0.04     0.77  4197.26     0  00:05        0.77
  5167                 JUNCTION     0.01     0.02  4208.18     0  08:00        0.02
  5168                 JUNCTION     0.01     0.01  4219.58     0  08:00        0.01
  5169                 JUNCTION     0.32    12.63  4207.72     0  00:05       12.61
  5170                 JUNCTION     0.02     9.28  4206.71     0  00:05        9.26
  5171                 JUNCTION     0.03     9.05  4217.61     0  00:05        9.03
  5172                 JUNCTION     0.01     0.01  4229.85     0  08:00        0.01
  5173                 JUNCTION     0.01     0.01  4264.12     0  08:00        0.01
  5174                 JUNCTION     0.01     0.02  4215.63     0  08:00        0.02
  5175                 JUNCTION     0.02     0.03  4211.91     0  00:05        0.03
  5181                 JUNCTION     0.04    10.60  4196.00     0  00:05       10.58
  5182                 JUNCTION     0.04     7.57  4183.95     0  00:05        7.56
  5183                 JUNCTION     0.07     7.73  4179.95     0  00:05        7.72
  5184                 JUNCTION     0.04     4.04  4177.18     0  00:05        4.03
  5185                 JUNCTION     0.13    11.72  4179.31     0  00:05        3.11
  5186                 JUNCTION   217.36   222.91   223.01     1  00:00      222.91
  5187                 JUNCTION     0.03     6.58  4194.91     0  00:05        6.57
  5188                 JUNCTION     0.07    11.15  4195.68     0  00:05       11.13
  5189                 JUNCTION     0.01     0.67  4194.57     0  00:05        0.67
  5190                 JUNCTION     0.01     0.02  4195.39     0  08:00        0.02
  5191                 JUNCTION     0.01     0.02  4193.81     0  00:05        0.02
  CPGWHITE             JUNCTION     0.00     0.00  4656.05     0  08:00        0.00
  JT1002               JUNCTION     0.01     0.01  4770.29     0  08:00        0.01
  JT1003               JUNCTION     0.01     0.02  4763.17     0  00:05        0.02
  JT1004               JUNCTION     0.02     0.02  4758.19     0  08:00        0.02
  JT1005               JUNCTION     0.02     0.77  4754.15     0  00:05        0.77
  JT1006               JUNCTION     0.03     4.51  4751.13     0  00:05        4.50
  JT1007               JUNCTION     0.03     6.83  4748.95     0  00:05        6.82
  JT1008               JUNCTION     0.03     0.44  4738.16     0  00:07        0.29
  JT1009               JUNCTION     0.03     0.41  4730.33     0  00:07        0.31
  JT1010               JUNCTION     0.04     8.89  4729.45     0  00:05        8.88
  JT1011               JUNCTION     0.04     0.77  4714.57     0  00:05        0.76
  JT1012               JUNCTION     0.16    14.67  4710.59     0  00:05       14.65
  JT1013               JUNCTION     0.12    13.67  4709.79     0  00:05        6.41
  JT1014               JUNCTION     0.11    12.37  4707.19     0  00:05        3.96
  JT1015               JUNCTION     0.05     9.23  4702.58     0  00:05        9.21
  JT1016               JUNCTION     0.14    14.31  4698.35     0  00:05       14.29
  JT1017               JUNCTION     0.41    18.30  4692.89     0  00:05       13.16
  JT1018               JUNCTION     0.09    10.06  4707.58     0  00:05       10.04
  JT1019               JUNCTION     0.02     6.73  4734.56     0  00:05        2.79
  JT1020               JUNCTION     0.02     0.03  4730.11     0  00:05        0.03
  JT1021               JUNCTION     0.01     0.02  4731.03     0  08:00        0.02
  JT1022               JUNCTION     0.01     0.02  4732.58     0  08:00        0.02
  JT1023               JUNCTION     0.01     0.02  4730.71     0  08:00        0.02
  JT1024               JUNCTION     0.32    12.32  4685.83     0  00:05        9.80
  JT1025               JUNCTION     0.32    11.38  4683.76     0  00:05        9.04
  JT1026               JUNCTION     0.04     4.54  4684.04     0  00:13        1.91
  JT1027               JUNCTION     0.01     0.02  4682.34     0  08:00        0.02
  JT1028               JUNCTION     0.01     0.01  4722.58     0  08:00        0.01
  JT1029               JUNCTION     0.01     0.02  4720.54     0  08:00        0.02
  JT1030               JUNCTION     0.02     0.03  4719.52     0  00:05        0.03
  JT1031               JUNCTION     0.02     0.02  4716.26     0  08:00        0.02
  JT1032               JUNCTION     0.02     0.77  4714.03     0  00:05        0.77
  JT1033               JUNCTION     0.02     0.28  4709.60     0  00:06        0.11
  JT1034               JUNCTION     0.03     0.77  4701.40     0  00:05        0.77
  JT1035               JUNCTION     0.03     3.41  4698.99     0  00:05        3.41
  JT1036               JUNCTION     0.03     8.64  4698.59     0  00:05        8.63
  JT1037               JUNCTION     0.04     7.46  4690.81     0  00:05        0.48
  JT1038               JUNCTION     0.07     9.45  4688.82     0  00:05        3.11
  JT1039               JUNCTION     0.05     7.49  4685.73     0  00:06        4.36
  JT1040               JUNCTION     0.03     6.84  4683.83     0  00:08        3.07
  JT1041               JUNCTION     0.09     9.50  4684.87     0  00:05        9.48
  JT1042               JUNCTION     0.13     8.04  4682.05     0  00:08        5.38
  JT1043               JUNCTION     0.27     8.78  4679.09     0  00:05        8.77
  JT1045               JUNCTION     0.27     7.17  4678.04     0  00:06        6.91
  JT1046               JUNCTION     0.32     7.26  4676.02     0  00:05        7.26
  JT1047               JUNCTION     0.35     7.95  4672.63     0  00:06        7.58
  JT1048               JUNCTION     0.53    10.90  4667.38     0  00:05       10.88
  JT1049               JUNCTION     0.49    10.96  4667.56     0  00:05       10.94
  JT1050               JUNCTION     0.51     9.66  4664.44     0  00:05        9.66
  JT1051               JUNCTION     0.49    12.18  4663.84     0  00:05       11.43
  JT1052               JUNCTION     0.08    10.87  4670.64     0  00:05       10.85
  JT1053               JUNCTION     0.04    12.37  4677.81     0  00:05        0.77
  JT1054               JUNCTION     0.04    14.47  4685.01     0  00:05        0.77
  JT1055               JUNCTION     0.02    14.10  4696.79     0  00:05       14.08
  JT1056               JUNCTION     0.01     0.02  4701.87     0  08:00        0.02
  JT1057               JUNCTION     0.01     0.02  4709.48     0  08:00        0.02
  JT1058               JUNCTION     0.02     0.03  4712.49     0  00:05        0.03
  JT1059               JUNCTION     0.01     0.01  4720.70     0  08:00        0.01
  JT1060               JUNCTION     0.47    11.04  4658.26     0  00:05       11.02
  JT1061               JUNCTION     0.58    11.06  4651.97     0  00:05       11.06
  JT1062               JUNCTION     0.40     8.66  4647.53     0  00:06        7.96
  JT1063               JUNCTION     0.01     0.02  4649.32     0  08:00        0.02
  JT1064               JUNCTION     0.01     0.01  4667.24     0  08:00        0.01
  JT1065               JUNCTION     0.41     8.80  4644.93     0  00:06        7.93
  JT1066               JUNCTION     0.55     9.84  4636.16     0  00:05        9.82
  JT1067               JUNCTION     0.39     8.94  4632.61     0  00:06        6.56
  JT1068               JUNCTION     0.64    10.55  4629.79     0  00:05       10.53
  JT1069               JUNCTION     0.57     9.67  4628.44     0  00:05        9.65
  JT1070               JUNCTION     0.31     6.91  4631.60     0  00:09        5.52
  JT1071               JUNCTION     0.01     0.02  4641.67     0  08:00        0.02
  JT1072               JUNCTION     0.02     0.03  4638.61     0  08:00        0.03
  JT1073               JUNCTION     0.01     0.01  4659.72     0  08:00        0.01
  JT1074               JUNCTION     0.01     0.02  4657.30     0  08:00        0.02
  JT1075               JUNCTION     0.02     0.02  4653.61     0  00:05        0.02
  JT1076               JUNCTION     0.02     0.03  4642.65     0  08:00        0.03
  JT1077               JUNCTION     0.02     0.02  4647.90     0  08:00        0.02
  JT1078               JUNCTION     0.05     0.67  4630.20     0  00:19        0.66
  JT1079               JUNCTION     0.09    11.14  4637.96     0  00:05       11.12
  JT1080               JUNCTION     0.07    10.27  4639.04     0  00:05       10.25
  JT1081               JUNCTION     0.05     7.36  4643.65     0  00:06        3.19
  JT1082               JUNCTION     0.04     9.12  4652.40     0  00:05        9.10
  JT1083               JUNCTION     0.03     5.25  4655.37     0  00:05        5.24
  JT1084               JUNCTION     0.03     0.77  4657.43     0  00:05        0.77
  JT1085               JUNCTION     0.02     0.77  4664.44     0  00:05        0.77
  JT1086               JUNCTION     0.02     6.38  4673.74     0  00:05        6.37
  JT1087               JUNCTION     0.02     0.02  4670.43     0  08:00        0.02
  JT1088               JUNCTION     0.01     0.02  4674.68     0  08:00        0.02
  JT1089               JUNCTION     0.02     0.02  4676.29     0  08:00        0.02
  JT1090               JUNCTION     0.18    11.01  4630.00     0  00:06        9.81
  JT1091               JUNCTION     0.55    10.72  4623.87     0  00:05       10.72
  JT1092               JUNCTION     0.41    10.38  4628.04     0  00:05        8.19
  JT1093               JUNCTION     0.57    10.25  4620.48     0  00:05       10.25
  JT1094               JUNCTION     0.63    10.16  4615.21     0  00:05       10.16
  JT1095               JUNCTION     0.62    10.91  4611.19     0  00:05       10.89
  JT1096               JUNCTION     0.67    10.80  4602.66     0  00:05        8.00
  JT1098               JUNCTION     0.60     9.96  4602.44     0  00:05        7.42
  JT1099               JUNCTION     0.40     9.02  4603.17     0  00:05        6.32
  JT1100               JUNCTION     0.15     8.93  4606.16     0  00:05        8.92
  JT1101               JUNCTION     0.30     6.65  4597.56     0  00:05        6.64
  JT1102               JUNCTION     0.53     8.15  4601.47     0  00:05        7.19
  JT1103               JUNCTION     0.11     6.18  4604.05     0  00:05        6.17
  JT1104               JUNCTION     0.16     8.36  4605.61     0  00:06        2.85
  JT1105               JUNCTION     0.28     8.03  4603.73     0  00:06        4.37
  JT1106               JUNCTION     0.42     5.80  4600.42     0  00:05        5.79
  JT1107               JUNCTION     0.36     4.70  4600.15     0  00:05        4.70
  JT1108               JUNCTION     0.24     6.40  4603.93     0  00:05        5.39
  JT1109               JUNCTION     0.19     7.85  4606.27     0  00:06        5.55
  JT1110               JUNCTION     0.08     7.93  4610.37     0  00:05        7.92
  JT1111               JUNCTION     0.03     5.33  4614.11     0  00:05        5.32
  JT1112               JUNCTION     0.05     3.16  4613.66     0  00:05        3.15
  JT1113               JUNCTION     0.02     4.14  4615.83     0  00:05        4.13
  JT1114               JUNCTION     0.02     4.76  4619.88     0  00:05        4.75
  JT1115               JUNCTION     0.02     2.47  4616.97     0  00:05        2.47
  JT1116               JUNCTION     0.03     0.45  4612.21     0  00:06        0.16
  JT1117               JUNCTION     1.51     2.80  4623.35     0  19:36        2.80
  JT1118               JUNCTION     0.01     0.02  4623.80     0  07:46        0.02
  JT1119               JUNCTION     0.01     0.02  4623.36     0  00:05        0.02
  JT1120               JUNCTION     0.01     0.02  4626.85     0  08:00        0.02
  JT1121               JUNCTION     0.01     0.02  4625.27     0  08:00        0.02
  JT1122               JUNCTION     0.01     0.01  4635.43     0  07:58        0.01
  JT1123               JUNCTION     0.07     6.31  4609.45     0  00:06        2.41
  JT1125               JUNCTION     0.34     8.06  4524.36     0  00:05        8.05
  JT1126               JUNCTION     0.04     7.97  4530.50     0  00:05        2.30
  JT1127               JUNCTION     0.02     0.03  4528.60     0  00:05        0.02
  JT1128               JUNCTION     0.01     0.03  4534.42     0  00:05        0.03
  JT1129               JUNCTION     0.07     8.82  4544.66     0  00:06        0.94
  JT1130               JUNCTION     0.11    12.46  4556.97     0  00:05       12.44
  JT1131               JUNCTION     0.06    12.70  4574.08     0  00:05       12.68
  JT1132               JUNCTION     0.03     9.13  4590.07     0  00:05        0.24
  JT1133               JUNCTION     0.03     9.26  4612.03     0  00:05        9.24
  JT1134               JUNCTION     0.02     6.51  4648.34     0  00:05        6.50
  JT1135               JUNCTION     0.02     0.77  4659.75     0  00:05        0.77
  JT1136               JUNCTION     0.03     4.64  4672.25     0  00:05        4.63
  JT1137               JUNCTION     0.04     5.54  4677.54     0  00:05        3.82
  JT1138               JUNCTION     0.02     4.00  4691.60     0  00:05        3.99
  JT1139               JUNCTION     0.02     2.13  4699.22     0  00:05        2.13
  JT1140               JUNCTION     0.02     1.71  4701.59     0  00:05        1.71
  JT1141               JUNCTION     0.01     0.02  4704.30     0  07:59        0.02
  JT1142               JUNCTION     0.01     0.01  4721.51     0  07:59        0.01
  JT1143               JUNCTION     0.01     0.01  4732.98     0  08:00        0.01
  JT1144               JUNCTION     0.01     0.01  4734.47     0  07:40        0.01
  JT1145               JUNCTION     0.02     0.05  4735.79     0  00:05        0.05
  JT1146               JUNCTION     0.01     0.01  4744.14     0  08:00        0.01
  JT1147               JUNCTION     0.01     0.02  4744.86     0  08:00        0.02
  JT1148               JUNCTION     0.01     0.02  4732.98     0  00:07        0.02
  JT1149               JUNCTION     0.02     0.03  4723.41     0  00:05        0.03
  JT1150               JUNCTION     0.02     0.02  4719.06     0  00:08        0.02
  JT1151               JUNCTION     0.03    12.26  4725.69     0  00:05       12.24
  JT1152               JUNCTION     0.02     4.62  4720.08     0  00:05        4.61
  JT1153               JUNCTION     0.02     5.55  4715.00     0  00:05        5.54
  JT1154               JUNCTION     0.02     7.12  4684.38     0  00:05        7.11
  JT1155               JUNCTION     0.02     3.64  4691.83     0  00:05        3.63
  JT1156               JUNCTION     0.03     5.88  4693.66     0  00:05        0.42
  JT1157               JUNCTION     0.06    10.17  4696.95     0  00:05       10.15
  JT1158               JUNCTION     0.01     0.01  4741.91     0  07:24        0.01
  JT1159               JUNCTION     0.01     0.28  4735.35     0  00:05        0.28
  JT1160               JUNCTION     0.01     0.77  4718.61     0  00:05        0.76
  JT1161               JUNCTION     0.05     4.46  4689.55     0  00:05        0.90
  JT1162               JUNCTION     0.08    11.75  4695.54     0  00:05        4.80
  JT1163               JUNCTION     0.03     1.62  4684.95     0  00:05        1.62
  JT1164               JUNCTION     0.01     0.01  4712.06     0  07:53        0.01
  JT1165               JUNCTION     0.01     0.01  4728.13     0  07:52        0.01
  JT1166               JUNCTION     0.01     0.01  4750.35     0  07:35        0.01
  JT1167               JUNCTION     0.02     7.28  4615.24     0  00:05        7.27
  JT1168               JUNCTION     0.02     0.02  4608.81     0  08:00        0.02
  JT1169               JUNCTION     0.01     6.17  4616.28     0  00:05        6.16
  JT1170               JUNCTION     0.02     0.77  4608.75     0  00:05        0.77
  JT1171               JUNCTION     0.01     0.01  4616.02     0  07:48        0.01
  JT1172               JUNCTION     0.02     0.02  4609.86     0  08:00        0.02
  JT1173               JUNCTION     0.04     0.50  4594.82     0  00:47        0.48
  JT1174               JUNCTION     0.03     0.03  4595.50     0  08:00        0.03
  JT1175               JUNCTION     0.02     0.02  4596.45     0  08:00        0.02
  JT1176               JUNCTION     0.01     0.02  4603.46     0  08:00        0.02
  JT1177               JUNCTION     0.01     0.01  4607.92     0  08:00        0.01
  JT1178               JUNCTION     0.01     0.01  4606.70     0  08:00        0.01
  JT1179               JUNCTION     0.02     0.02  4595.08     0  08:00        0.02
  JT1180               JUNCTION     0.01     0.02  4597.03     0  08:00        0.02
  JT1181               JUNCTION     0.13     5.64  4598.67     0  00:22        1.77
  JT1182               JUNCTION     0.63    10.03  4597.99     0  00:05        9.29
  JT1183               JUNCTION     0.67     9.81  4591.65     0  00:05        9.79
  JT1184               JUNCTION     0.55     7.22  4584.92     0  00:25        5.85
  JT1186               JUNCTION     0.24     2.85  4579.14     0  00:25        2.50
  JT1187               JUNCTION     0.16     1.12  4573.22     0  00:43        0.99
  JT1188               JUNCTION     0.14     0.52  4567.48     0  00:49        0.52
  JT1189               JUNCTION     0.14     0.77  4561.31     0  00:05        0.77
  JT1190               JUNCTION     0.19     8.21  4560.95     0  00:05        5.64
  JT1191               JUNCTION     0.15     7.71  4556.68     0  00:05        7.70
  JT1192               JUNCTION     0.15     0.65  4542.55     0  00:10        0.64
  JT1193               JUNCTION     0.14     0.49  4536.47     0  00:11        0.48
  JT1194               JUNCTION     0.15     7.74  4535.36     0  00:05        7.73
  JT1195               JUNCTION     0.28     5.45  4527.30     0  00:17        3.12
  JT1196               JUNCTION     0.39     5.63  4521.12     0  00:17        4.21
  JT1197               JUNCTION     0.22     4.33  4515.94     0  00:17        2.93
  JT1198               JUNCTION     0.54     7.76  4510.44     0  00:05        7.75
  JT1199               JUNCTION     0.50     8.94  4506.77     0  00:05        7.38
  JT1200               JUNCTION     0.43     8.70  4501.62     0  00:05        8.70
  JT1201               JUNCTION     0.01     0.01  4483.14     0  07:50        0.01
  JT1202               JUNCTION     0.01     0.04  4479.40     0  00:05        0.04
  JT1203               JUNCTION     0.01     0.01  4485.23     0  08:00        0.01
  JT1204               JUNCTION     0.02     4.30  4473.57     0  00:05        4.29
  JT1205               JUNCTION     0.02     0.36  4461.56     0  00:05        0.09
  JT1206               JUNCTION     0.04     5.69  4449.37     0  00:05        5.68
  JT1207               JUNCTION     0.06     1.89  4444.31     0  00:05        1.89
  JT1208               JUNCTION     0.08     0.54  4448.42     0  00:15        0.54
  JT1209               JUNCTION     0.08     2.09  4454.37     0  00:14        1.07
  JT1210               JUNCTION     0.07     0.57  4457.16     0  00:06        0.49
  JT1211               JUNCTION     0.08    13.53  4474.82     0  00:05        0.94
  JT1212               JUNCTION     0.05     9.10  4501.60     0  00:05        9.08
  JT1213               JUNCTION     0.17     7.13  4501.12     0  00:06        6.04
  JT1214               JUNCTION     0.20     7.08  4501.62     0  00:07        6.23
  JT1215               JUNCTION     0.23    12.60  4507.55     0  00:05       12.58
  JT1216               JUNCTION     0.03    11.99  4529.72     0  00:05       11.97
  JT1217               JUNCTION     0.02     0.51  4517.19     0  00:10        0.47
  JT1218               JUNCTION     0.26    14.53  4514.70     0  00:05       12.40
  JT1219               JUNCTION     0.29    13.20  4508.76     0  00:05       10.76
  JT1220               JUNCTION     0.30    10.96  4506.20     0  00:05       10.55
  JT1221               JUNCTION     0.01     0.01  4554.98     0  07:52        0.01
  JT1222               JUNCTION     0.01     0.01  4555.09     0  08:00        0.01
  JT1223               JUNCTION     0.02     0.18  4551.26     0  00:05        0.18
  JT1224               JUNCTION     0.01     0.01  4552.35     0  07:59        0.01
  JT1225               JUNCTION     0.02     0.77  4550.53     0  00:05        0.77
  JT1226               JUNCTION     0.02     7.94  4554.29     0  00:05        7.93
  JT1227               JUNCTION     0.03     0.77  4544.24     0  00:05        0.77
  JT1228               JUNCTION     0.02     0.77  4539.50     0  00:05        0.77
  JT1229               JUNCTION     0.05     7.57  4543.37     0  00:05        7.56
  JT1230               JUNCTION     0.05     2.80  4531.76     0  00:06        0.50
  JT1231               JUNCTION     0.05     0.77  4524.16     0  00:05        0.77
  JT1232               JUNCTION     0.09     6.07  4529.85     0  00:05        1.51
  JT1233               JUNCTION     0.08     8.27  4520.87     0  00:05        8.26
  JT1234               JUNCTION     0.07     6.24  4543.36     0  00:06        1.17
  JT1235               JUNCTION     0.07     8.25  4546.14     0  00:05        8.24
  JT1236               JUNCTION     0.04     1.18  4545.19     0  00:05        1.18
  JT1239               JUNCTION     0.04     0.47  4538.42     0  00:10        0.47
  JT1243               JUNCTION     0.01     0.01  4632.00     0  08:00        0.01
  JT1244               JUNCTION     0.01     0.02  4625.22     0  08:00        0.02
  JT1245               JUNCTION     0.01     0.02  4617.10     0  08:00        0.02
  JT1246               JUNCTION     0.01     0.02  4607.09     0  08:00        0.02
  JT1247               JUNCTION     0.01     0.01  4594.98     0  08:00        0.01
  JT1248               JUNCTION     0.01     0.01  4579.98     0  08:00        0.01
  JT1249               JUNCTION     0.02     1.48  4578.27     0  00:05        1.47
  JT1250               JUNCTION     0.05     8.77  4583.61     0  00:05        8.76
  JT1251               JUNCTION     0.03     6.54  4580.93     0  00:05        6.53
  JT1252               JUNCTION     0.01     0.02  4594.20     0  08:00        0.02
  JT1253               JUNCTION     0.01     0.06  4599.42     0  00:05        0.01
  JT1254               JUNCTION     0.02    10.60  4603.76     0  00:05       10.58
  JT1255               JUNCTION     0.09     8.88  4593.85     0  00:05        8.87
  JT1256               JUNCTION     0.03     8.73  4599.72     0  00:05        6.65
  JT1257               JUNCTION     0.07     8.21  4597.75     0  00:05        1.28
  JT1258               JUNCTION     0.07     8.92  4599.82     0  00:05        8.91
  JT1259               JUNCTION     0.06     8.70  4602.57     0  00:05        8.59
  JT1260               JUNCTION     0.02     1.13  4598.09     0  00:05        1.13
  JT1261               JUNCTION     0.02     0.02  4597.77     0  08:00        0.02
  JT1262               JUNCTION     0.01     0.01  4615.09     0  08:00        0.01
  JT1263               JUNCTION     0.01     0.01  4619.78     0  08:00        0.01
  JT1264               JUNCTION     0.01     0.01  4607.46     0  07:40        0.01
  JT1266               JUNCTION     0.03     3.38  4594.10     0  00:05        3.37
  JT1267               JUNCTION     0.01     0.01  4597.63     0  08:00        0.01
  JT1268               JUNCTION     0.05     0.77  4605.47     0  00:05        0.77
  JT1269               JUNCTION     0.04     7.27  4605.70     0  00:05        0.77
  JT1270               JUNCTION     0.01     0.46  4581.80     0  00:09        0.43
  JT1271               JUNCTION     0.10     8.41  4585.48     0  00:05        4.59
  JT1272               JUNCTION     0.14     7.85  4573.77     0  00:05        7.84
  JT1274               JUNCTION     0.26     9.13  4539.05     0  00:05        9.11
  JT1275               JUNCTION     0.34     8.27  4549.22     0  00:05        8.27
  JT1276               JUNCTION     0.43    10.97  4553.52     0  00:05       10.97
  JT1277               JUNCTION     0.46    13.56  4557.16     0  00:05       13.50
  JT1278               JUNCTION     0.12     8.51  4565.94     0  00:05        8.50
  JT1279               JUNCTION     0.01     0.01  4544.33     0  08:00        0.01
  JT1280               JUNCTION     0.14     7.21  4573.72     0  00:05        6.54
  JT1281               JUNCTION     0.11     8.89  4576.21     0  00:05        5.74
  JT1282               JUNCTION     0.16     7.50  4568.87     0  00:05        7.50
  JT1283               JUNCTION     0.05     6.34  4570.42     0  00:06        4.78
  JT1284               JUNCTION     0.01     0.01  4575.63     0  08:00        0.01
  JT1285               JUNCTION     0.01     0.01  4583.14     0  08:00        0.01
  JT1286               JUNCTION     0.23     8.09  4559.17     0  00:05        8.04
  JT1287               JUNCTION     0.01     0.01  4583.78     0  08:00        0.01
  JT1288               JUNCTION     0.01     0.01  4590.09     0  08:00        0.01
  JT1289               JUNCTION     0.01     0.01  4589.22     0  08:00        0.01
  JT1290               JUNCTION     0.01     0.01  4594.32     0  08:00        0.01
  JT1291               JUNCTION     0.07    12.91  4592.47     0  00:05       12.89
  JT1292               JUNCTION     0.15    12.25  4590.50     0  00:05        5.66
  JT1294               JUNCTION     0.02     3.70  4599.96     0  00:05        3.69
  JT1295               JUNCTION     0.02     0.45  4639.45     0  00:05        0.10
  JT1296               JUNCTION     0.02     0.65  4650.63     0  00:05        0.11
  JT1297               JUNCTION     0.02     0.77  4629.67     0  00:05        0.77
  JT1298               JUNCTION     0.08    17.56  4610.91     0  00:05        6.52
  JT1299               JUNCTION     0.04    10.18  4631.69     0  00:05       10.16
  JT1300               JUNCTION     0.04    10.15  4643.71     0  00:05        7.49
  JT1301               JUNCTION     0.03     5.64  4659.08     0  00:05        3.50
  JT1302               JUNCTION     0.07     4.10  4659.72     0  00:05        4.09
  JT1303               JUNCTION     0.06     3.03  4580.03     0  00:08        1.76
  JT1304               JUNCTION     0.07     8.26  4580.29     0  00:05        8.25
  JT1305               JUNCTION     0.06     3.22  4571.86     0  00:08        1.94
  JT1306               JUNCTION     0.06     2.59  4608.86     0  00:07        0.72
  JT1307               JUNCTION     0.10    11.21  4619.22     0  00:05        2.40
  JT1308               JUNCTION     0.11     8.18  4618.11     0  00:05        8.17
  JT1309               JUNCTION     0.09     8.23  4620.37     0  00:05        8.22
  JT1310               JUNCTION     0.03     0.44  4644.52     0  00:06        0.21
  JT1311               JUNCTION     0.03     8.95  4671.41     0  00:05        8.94
  JT1312               JUNCTION     0.02     0.77  4695.69     0  00:05        0.77
  JT1313               JUNCTION     0.02     0.42  4727.79     0  00:05        0.14
  JT1314               JUNCTION     0.02     4.25  4753.60     0  00:05        4.24
  JT1315               JUNCTION     0.02     0.77  4774.68     0  00:05        0.77
  JT1316               JUNCTION     0.04    15.23  4791.83     0  00:05       15.20
  JT1317               JUNCTION     0.05     7.50  4785.66     0  00:05        7.49
  JT1318               JUNCTION     0.02     0.77  4794.77     0  00:05        0.77
  JT1319               JUNCTION     0.02     0.77  4798.40     0  00:05        0.77
  JT1320               JUNCTION     0.02     0.02  4808.25     0  08:00        0.02
  JT1321               JUNCTION     0.02     0.02  4814.07     0  08:00        0.02
  JT1322               JUNCTION     0.02     0.03  4816.65     0  08:00        0.03
  JT1323               JUNCTION     0.02     0.03  4817.31     0  08:00        0.03
  JT1324               JUNCTION     0.02     0.03  4818.14     0  08:00        0.03
  JT1325               JUNCTION     0.01     0.01  4822.17     0  08:00        0.01
  JT1327               JUNCTION     0.02     0.02  4542.38     0  08:00        0.02
  JT1328               JUNCTION     0.01     0.01  4555.50     0  08:00        0.01
  JT1329               JUNCTION     0.01     0.01  4568.66     0  08:00        0.01
  JT1330               JUNCTION     0.01     0.01  4578.12     0  08:00        0.01
  JT1331               JUNCTION     0.03     0.45  4554.78     0  00:06        0.31
  JT1332               JUNCTION     0.04     8.62  4570.29     0  00:05        8.61
  JT1333               JUNCTION     0.04     5.55  4570.15     0  00:05        5.54
  JT1334               JUNCTION     0.04     6.87  4573.08     0  00:05        6.86
  JT1335               JUNCTION     0.01     0.01  4578.62     0  08:00        0.01
  JT1336               JUNCTION     0.03     1.49  4571.35     0  00:05        1.48
  JT1337               JUNCTION     0.02     0.13  4574.81     0  00:05        0.13
  JT1338               JUNCTION     0.02     0.03  4580.29     0  08:00        0.03
  JT1339               JUNCTION     0.02     0.03  4581.33     0  08:00        0.03
  JT1340               JUNCTION     0.36     6.60  4585.10     0  00:25        5.06
  JT1341               JUNCTION     0.27     6.54  4586.06     0  00:25        4.04
  JT1342               JUNCTION     0.17     8.36  4588.90     0  00:25        3.01
  JT1343               JUNCTION     0.01     0.02  4584.20     0  08:00        0.02
  JT1344               JUNCTION     0.02     0.02  4587.69     0  08:00        0.02
  JT1345               JUNCTION     0.01     0.01  4597.86     0  08:00        0.01
  JT1346               JUNCTION     0.01     0.01  4606.32     0  08:00        0.01
  JT1347               JUNCTION     0.02     0.03  4585.20     0  08:00        0.03
  JT1348               JUNCTION     0.51     1.08  4568.15     1  00:00        1.08
  JT1349               JUNCTION     0.05     6.03  4561.71     0  00:05        6.02
  JT1350               JUNCTION     0.10     9.51  4531.82     0  00:05        9.49
  JT1351               JUNCTION     0.04     8.73  4526.73     0  00:05        3.13
  JT1352               JUNCTION     0.03     6.94  4510.89     0  00:05        6.93
  JT1353               JUNCTION     0.04     8.00  4490.85     0  00:05        7.99
  JT1354               JUNCTION     0.05     7.51  4463.63     0  00:05        0.50
  JT1356               JUNCTION     0.07     5.24  4562.24     0  00:05        3.73
  JT1357               JUNCTION     0.07     4.33  4562.86     0  00:05        4.32
  JT1358               JUNCTION     0.03     0.06  4565.57     0  00:06        0.04
  JT1359               JUNCTION     0.06     4.47  4562.87     0  00:05        4.46
  JT1360               JUNCTION     0.01     4.72  4576.53     0  00:05        4.71
  JT1361               JUNCTION     0.02     0.11  4571.46     0  00:05        0.03
  JT1362               JUNCTION     0.02     0.03  4577.99     0  08:00        0.03
  JT1363               JUNCTION     0.01     0.02  4599.59     0  08:00        0.02
  JT1364               JUNCTION     0.01     0.02  4598.70     0  08:00        0.02
  JT1365               JUNCTION     0.01     0.02  4595.00     0  08:00        0.02
  JT1366               JUNCTION     0.02     0.02  4586.99     0  08:00        0.02
  JT1367               JUNCTION     0.02     0.03  4580.94     0  08:00        0.03
  JT1368               JUNCTION     0.01     0.02  4589.45     0  08:00        0.02
  JT1369               JUNCTION     0.01     0.01  4595.56     0  08:00        0.01
  JT1370               JUNCTION     0.01     0.01  4587.84     0  08:00        0.01
  JT1371               JUNCTION     0.01     0.01  4594.67     0  08:00        0.01
  JT1372               JUNCTION     0.04     0.04  4575.49     0  08:00        0.04
  JT1373               JUNCTION     0.01     0.01  4579.32     0  08:00        0.01
  JT1374               JUNCTION     0.02     0.03  4576.12     0  08:00        0.03
  JT1375               JUNCTION     0.02     0.02  4574.92     0  08:00        0.02
  JT1376               JUNCTION     0.04     0.48  4560.36     0  00:06        0.30
  JT1377               JUNCTION     0.04     2.82  4564.08     0  00:05        2.82
  JT1378               JUNCTION     0.10    10.37  4508.64     0  00:05        5.70
  JT1379               JUNCTION     0.05    11.75  4517.38     0  00:05       11.73
  JT1380               JUNCTION     0.05    11.95  4520.13     0  00:05       11.93
  JT1381               JUNCTION     0.04     3.44  4516.87     0  00:05        0.77
  JT1382               JUNCTION     0.03     0.77  4517.18     0  00:05        0.77
  JT1383               JUNCTION     0.02    11.80  4534.48     0  00:05       11.78
  JT1384               JUNCTION     0.02     0.77  4529.68     0  00:05        0.77
  JT1385               JUNCTION     0.02     0.02  4535.14     0  08:00        0.02
  JT1386               JUNCTION     0.01     0.01  4542.19     0  08:00        0.01
  JT1387               JUNCTION     0.01     0.01  4548.58     0  08:00        0.01
  JT1388               JUNCTION     0.01     0.01  4560.11     0  08:00        0.01
  JT1389               JUNCTION     0.01     0.03  4525.60     0  00:05        0.03
  JT1390               JUNCTION     0.01     0.01  4531.45     0  07:45        0.01
  JT1391               JUNCTION     0.01     0.01  4520.15     0  08:00        0.01
  JT1392               JUNCTION     0.01     0.01  4531.95     0  08:00        0.01
  JT1393               JUNCTION     0.01     0.02  4615.65     0  08:00        0.02
  JT1394               JUNCTION     0.03     0.04  4613.49     0  08:00        0.04
  JT1395               JUNCTION     0.02     0.02  4630.71     0  08:00        0.02
  JT1396               JUNCTION     0.02     0.02  4639.98     0  08:00        0.02
  JT1397               JUNCTION     0.31     0.34  4644.80     0  08:00        0.34
  JT1398               JUNCTION     0.04     0.05  4644.80     0  08:00        0.05
  JT1399               JUNCTION     0.03     0.03  4645.25     0  08:00        0.03
  JT1400               JUNCTION     0.02     0.03  4646.25     0  08:00        0.03
  JT1401               JUNCTION     0.02     0.03  4647.15     0  08:00        0.03
  JT1402               JUNCTION     0.02     0.02  4648.07     0  08:00        0.02
  JT1403               JUNCTION     0.01     0.02  4662.20     0  08:00        0.02
  JT1404               JUNCTION     0.01     0.01  4660.02     0  08:00        0.01
  JT1405               JUNCTION     0.01     0.02  4645.08     0  08:00        0.02
  JT1406               JUNCTION     0.03     0.77  4642.84     0  00:05        0.76
  JT1407               JUNCTION     0.01     0.20  4632.77     0  00:05        0.09
  JT1408               JUNCTION     0.05    13.97  4608.53     0  00:05       13.95
  JT1409               JUNCTION     0.05    14.25  4607.71     0  00:05        3.60
  JT1410               JUNCTION     0.05     8.26  4599.72     0  00:05        8.25
  JT1411               JUNCTION     0.03     7.28  4606.98     0  00:05        7.27
  JT1412               JUNCTION     0.02     0.03  4608.49     0  08:00        0.03
  JT1413               JUNCTION     0.01     0.77  4584.75     0  00:05        0.77
  JT1414               JUNCTION     0.01     0.01  4588.13     0  07:59        0.01
  JT1415               JUNCTION     0.02     0.02  4586.25     0  08:00        0.02
  JT1416               JUNCTION     0.01     0.02  4588.10     0  08:00        0.02
  JT1417               JUNCTION     0.01     0.01  4594.07     0  07:38        0.01
  JT1418               JUNCTION     0.07     9.20  4587.36     0  00:05        4.56
  JT1419               JUNCTION     0.08     9.45  4584.17     0  00:05        9.43
  JT1420               JUNCTION     0.11     6.53  4573.61     0  00:05        6.52
  JT1421               JUNCTION     0.01     0.01  4580.67     0  07:29        0.01
  JT1422               JUNCTION     0.03     7.33  4579.82     0  00:05        4.48
  JT1423               JUNCTION     0.19    12.32  4570.32     0  00:05       12.30
  JT1424               JUNCTION     0.15    11.90  4567.98     0  00:05       11.88
  JT1425               JUNCTION     0.12     5.12  4548.34     0  00:05        5.11
  JT1426               JUNCTION     0.08     7.05  4558.85     0  00:06        2.45
  JT1427               JUNCTION     0.02     0.50  4572.47     0  00:05        0.05
  JT1428               JUNCTION     0.02    15.29  4597.29     0  00:05       15.26
  JT1429               JUNCTION     0.02     0.02  4601.40     0  08:00        0.02
  JT1430               JUNCTION     0.01     0.02  4626.43     0  08:00        0.02
  JT1431               JUNCTION     0.01     0.01  4638.13     0  08:00        0.01
  JT1432               JUNCTION     0.01     0.02  4592.83     0  08:00        0.02
  JT1433               JUNCTION     0.02    13.60  4595.15     0  00:05       13.58
  JT1434               JUNCTION     0.01     0.01  4616.85     0  08:00        0.01
  JT1435               JUNCTION     0.01     0.03  4612.36     0  00:05        0.03
  JT1436               JUNCTION     0.02     0.03  4603.34     0  08:00        0.03
  JT1437               JUNCTION     0.01     0.01  4590.65     0  08:00        0.01
  JT1438               JUNCTION     0.01     0.01  4585.14     0  08:00        0.01
  JT1439               JUNCTION     0.01     0.02  4576.84     0  08:00        0.02
  JT1440               JUNCTION     0.10     9.81  4568.55     0  00:05        9.79
  JT1441               JUNCTION     0.07     8.08  4568.27     0  00:05        8.07
  JT1442               JUNCTION     0.03     6.18  4567.79     0  00:05        1.11
  JT1443               JUNCTION     0.02    10.00  4572.43     0  00:06        0.50
  JT1444               JUNCTION     0.01     0.02  4565.75     0  08:00        0.02
  JT1446               JUNCTION     0.09     5.52  4547.72     0  00:06        3.61
  JT1447               JUNCTION     0.29    13.77  4544.00     0  00:05       13.75
  JT1448               JUNCTION     0.25    10.48  4541.42     0  00:05       10.48
  JT1449               JUNCTION     0.03     9.19  4553.42     0  00:05        9.17
  JT1450               JUNCTION     0.09     9.10  4516.00     0  00:05        4.26
  JT1451               JUNCTION     0.06    10.08  4518.23     0  00:05       10.06
  JT1452               JUNCTION     0.01     0.01  4518.23     0  08:00        0.01
  JT1453               JUNCTION     0.10    13.31  4518.92     0  00:05       13.29
  JT1454               JUNCTION     0.06    11.22  4515.85     0  00:05        0.92
  JT1455               JUNCTION     0.13    10.28  4504.26     0  00:05        8.01
  JT1456               JUNCTION     0.15    14.42  4504.62     0  00:05        8.21
  JT1457               JUNCTION     0.65     9.87  4494.37     0  00:05        9.87
  JT1458               JUNCTION     0.56     9.50  4489.13     0  00:05        8.31
  JT1459               JUNCTION     0.68     9.24  4481.34     0  00:05        9.24
  JT1460               JUNCTION     0.73    10.00  4472.33     0  00:06        9.76
  JT1461               JUNCTION     0.61     8.19  4465.33     0  00:06        7.83
  JT1462               JUNCTION     0.59     9.78  4461.13     0  00:05        9.76
  JT1463               JUNCTION     0.50     8.78  4455.18     0  00:05        5.80
  JT1464               JUNCTION     0.66     9.93  4446.36     0  00:05        7.30
  JT1465               JUNCTION     0.53     8.39  4437.64     0  00:05        5.84
  JT1466               JUNCTION     0.47     7.72  4428.86     0  00:05        7.71
  JT1467               JUNCTION     1.07    11.82  4421.44     0  00:05       11.46
  JT1468               JUNCTION     1.64    13.90  4416.45     0  00:05       13.90
  JT1469               JUNCTION     0.79     7.72  4408.62     0  00:05        7.19
  JT1470               JUNCTION     0.88     7.80  4399.75     0  00:05        7.79
  JT1471               JUNCTION     1.00     7.80  4391.10     0  00:06        7.80
  JT1472               JUNCTION     0.90     8.72  4388.11     0  00:05        8.32
  JT1473               JUNCTION     0.61     7.74  4384.01     0  00:05        7.74
  JT1474               JUNCTION     0.56     9.28  4380.03     0  00:05        9.28
  JT1475               JUNCTION     0.23     8.75  4369.88     0  00:05        2.43
  JT1476               JUNCTION     0.02     2.83  4367.53     0  00:05        2.82
  JT1477               JUNCTION     0.01     0.02  4369.04     0  08:00        0.02
  JT1478               JUNCTION     0.01     0.01  4388.02     0  08:00        0.01
  JT1479               JUNCTION     0.30     9.32  4405.26     0  00:09        8.85
  JT1480               JUNCTION     0.26     9.91  4403.80     0  00:09        6.51
  JT1481               JUNCTION     0.13     6.20  4398.64     0  00:05        6.19
  JT1482               JUNCTION     0.07     9.87  4397.50     0  00:05        9.85
  JT1483               JUNCTION     0.27     9.06  4409.78     0  00:12        8.69
  JT1484               JUNCTION     0.38    11.78  4413.47     0  00:10       11.32
  JT1485               JUNCTION     0.55    14.85  4416.77     0  00:05       14.83
  JT1486               JUNCTION     0.35    12.34  4415.84     0  00:10       12.34
  JT1487               JUNCTION     0.30    10.54  4415.56     0  00:05       10.54
  JT1488               JUNCTION     0.12     7.79  4425.78     0  00:10        5.56
  JT1489               JUNCTION     0.07     5.17  4436.67     0  00:13        3.27
  JT1490               JUNCTION     0.06    10.10  4453.82     0  00:05        6.68
  JT1491               JUNCTION     0.18     7.90  4426.21     0  00:05        7.89
  JT1492               JUNCTION     0.03     9.57  4434.68     0  00:05        4.22
  JT1493               JUNCTION     0.02     0.77  4433.45     0  00:05        0.77
  JT1494               JUNCTION     0.02     8.21  4460.43     0  00:05        8.19
  JT1495               JUNCTION     0.01     0.04  4466.69     0  00:05        0.02
  JT1496               JUNCTION     0.01     0.14  4468.78     0  00:05        0.14
  JT1497               JUNCTION     0.01     0.01  4475.89     0  08:00        0.01
  JT1498               JUNCTION     0.50     9.06  4486.40     0  00:05        9.06
  JT1499               JUNCTION     0.29     9.55  4496.13     0  00:06        6.29
  JT1500               JUNCTION     0.19     4.65  4492.54     0  00:05        4.65
  JT1501               JUNCTION     0.35    11.82  4503.33     0  00:06        9.14
  JT1502               JUNCTION     0.32     9.40  4507.35     0  00:05        9.40
  JT1503               JUNCTION     0.20     9.07  4534.85     0  00:05        7.64
  JT1504               JUNCTION     0.31    12.69  4530.51     0  00:05       12.67
  JT1505               JUNCTION     0.11     6.63  4521.42     0  00:07        3.79
  JT1506               JUNCTION     0.03     8.76  4514.57     0  00:05        1.99
  JT1507               JUNCTION     0.07     9.90  4566.02     0  00:05        9.48
  JT1508               JUNCTION     0.04     8.49  4560.79     0  00:05        8.48
  JT1509               JUNCTION     0.03     7.40  4542.56     0  00:05        7.39
  JT1510               JUNCTION     0.01     0.01  4456.82     0  08:00        0.01
  JT1511               JUNCTION     0.03     0.44  4452.20     0  00:35        0.44
  JT1512               JUNCTION     0.01     0.01  4457.62     0  08:00        0.01
  JT1513               JUNCTION     0.05     1.35  4448.62     0  00:05        1.35
  JT1514               JUNCTION     0.03     0.03  4448.51     0  08:00        0.03
  JT1515               JUNCTION     0.02     0.02  4450.03     0  08:00        0.02
  JT1517               JUNCTION     0.02     5.65  4434.84     0  00:05        5.64
  JT1518               JUNCTION     0.02     0.46  4401.27     0  00:05        0.18
  JT1519               JUNCTION     0.02     0.77  4386.82     0  00:05        0.77
  JT1520               JUNCTION     0.03     4.87  4383.89     0  00:05        4.86
  JT1521               JUNCTION     1.05    13.76  4367.70     0  00:05       13.76
  JT1522               JUNCTION     0.77     8.66  4361.47     0  00:05        8.66
  JT1523               JUNCTION     0.13     6.76  4392.93     0  00:05        6.34
  JT1524               JUNCTION     0.05     5.84  4413.27     0  00:05        5.83
  JT1525               JUNCTION     0.15     4.72  4415.04     0  00:05        4.72
  JT1526               JUNCTION     0.14     7.23  4423.82     0  00:05        7.23
  JT1527               JUNCTION     0.16    12.65  4434.04     0  00:05       12.63
  JT1528               JUNCTION     0.11     8.64  4444.34     0  00:05        7.13
  JT1529               JUNCTION     0.07     7.20  4454.73     0  00:05        3.65
  JT1530               JUNCTION     0.06     4.53  4426.87     0  00:07        2.07
  JT1532               JUNCTION     0.01     0.01  4464.45     0  07:48        0.01
  JT1533               JUNCTION     0.10     9.31  4436.46     0  00:05        9.29
  JT1534               JUNCTION     0.06     0.47  4419.42     0  00:06        0.45
  JT1535               JUNCTION     0.02     0.02  4409.80     0  08:00        0.02
  JT1536               JUNCTION     0.02     0.03  4410.23     0  08:00        0.03
  JT1537               JUNCTION     0.02     0.02  4412.11     0  08:00        0.02
  JT1538               JUNCTION     0.01     0.01  4425.30     0  08:00        0.01
  JT1539               JUNCTION     0.30     9.15  4513.93     0  00:05        9.13
  JT1540               JUNCTION     0.28     9.12  4512.85     0  00:06        5.46
  JT1541               JUNCTION     0.05     0.77  4481.58     0  00:05        0.77
  JT1542               JUNCTION     0.43    10.16  4439.86     0  00:05       10.16
  JT1543               JUNCTION     0.41    10.10  4431.90     0  00:05       10.08
  JT1544               JUNCTION     0.24     5.03  4420.02     0  00:05        4.98
  JT1545               JUNCTION     0.73    15.00  4413.35     0  00:05       14.98
  JT1546               JUNCTION     0.63    13.43  4412.97     0  00:05       10.23
  JT1547               JUNCTION     0.55     8.26  4409.63     0  00:05        8.26
  JT1548               JUNCTION     0.71     9.72  4385.36     0  00:07        9.72
  JT1549               JUNCTION     0.07     0.43  4496.10     0  00:22        0.43
  JT1550               JUNCTION     0.01     0.01  4519.66     0  08:00        0.01
  JT1551               JUNCTION     0.13    13.43  4517.69     0  00:05       13.41
  JT1552               JUNCTION     0.03     0.54  4534.90     0  00:05        0.21
  JT1553               JUNCTION     0.03     3.40  4565.23     0  00:05        3.39
  JT1554               JUNCTION     0.09     9.74  4512.01     0  00:05        9.72
  JT1555               JUNCTION     0.02     5.60  4506.64     0  00:05        5.59
  JT1556               JUNCTION     0.01     0.02  4524.04     0  08:00        0.02
  JT1557               JUNCTION     0.01     0.01  4542.31     0  08:00        0.01
  JT1558               JUNCTION     0.01     0.01  4521.68     0  08:00        0.01
  JT1559               JUNCTION     0.01     0.02  4508.68     0  08:00        0.02
  JT1560               JUNCTION     0.01     0.03  4517.44     0  00:06        0.02
  JT1561               JUNCTION     0.01     0.06  4528.83     0  00:05        0.06
  JT1562               JUNCTION     0.01     0.01  4549.20     0  08:00        0.01
  JT1563               JUNCTION     0.01     0.01  4565.49     0  08:00        0.01
  JT1564               JUNCTION     0.11     8.50  4504.74     0  00:05        4.85
  JT1565               JUNCTION     0.05     4.50  4498.90     0  00:05        4.49
  JT1566               JUNCTION     0.04     3.59  4498.46     0  00:05        3.58
  JT1567               JUNCTION     0.10    12.29  4481.82     0  00:05        2.60
  JT1568               JUNCTION     0.12     9.60  4478.84     0  00:05        4.53
  JT1569               JUNCTION     0.05     8.77  4474.03     0  00:05        8.76
  JT1570               JUNCTION     0.07    12.17  4482.85     0  00:05       12.15
  JT1572               JUNCTION     0.05     0.55  4449.33     0  00:08        0.47
  JT1573               JUNCTION     0.11     7.32  4432.79     0  00:06        7.32
  JT1574               JUNCTION     0.01     0.01  4475.18     0  08:00        0.01
  JT1575               JUNCTION     0.02    11.87  4419.66     0  00:05       11.85
  JT1576               JUNCTION     0.02     0.27  4406.95     0  00:05        0.10
  JT1577               JUNCTION     0.02     7.00  4410.27     0  00:05        6.99
  JT1578               JUNCTION     0.03     5.29  4407.17     0  00:05        2.58
  JT1579               JUNCTION     0.04     7.18  4399.68     0  00:05        7.17
  JT1580               JUNCTION     0.09    12.21  4418.30     0  00:05        5.72
  JT1581               JUNCTION     0.03     5.54  4455.30     0  00:05        5.53
  JT1582               JUNCTION     0.03     7.69  4468.58     0  00:05        7.68
  JT1583               JUNCTION     0.03     7.36  4468.68     0  00:05        7.35
  JT1584               JUNCTION     0.03     5.00  4466.95     0  00:05        4.99
  JT1585               JUNCTION     0.03    11.28  4486.39     0  00:05       11.26
  JT1586               JUNCTION     0.02     0.77  4503.07     0  00:05        0.77
  JT1587               JUNCTION     0.01     0.03  4532.36     0  00:07        0.03
  JT1588               JUNCTION     0.03     0.08  4533.75     0  00:05        0.08
  JT1589               JUNCTION     0.02     0.04  4536.43     0  00:09        0.04
  JT1590               JUNCTION     0.02     0.04  4541.15     0  00:06        0.03
  JT1591               JUNCTION     0.01     0.06  4545.35     0  00:05        0.06
  JT1592               JUNCTION     0.01     0.01  4551.72     0  07:40        0.01
  JT1593               JUNCTION     0.04    10.12  4316.01     0  00:05        3.22
  JT1594               JUNCTION     0.03     5.11  4373.83     0  00:05        3.94
  JT1595               JUNCTION     0.03     6.06  4397.02     0  00:05        6.05
  JT1596               JUNCTION     0.03     8.90  4432.83     0  00:05        8.89
  JT1597               JUNCTION     0.03     0.46  4434.54     0  00:06        0.29
  JT1598               JUNCTION     0.21     6.33  4281.22     0  00:06        5.99
  JT1599               JUNCTION     0.06     5.99  4281.27     0  00:06        3.76
  JT1600               JUNCTION     0.01     0.02  4283.65     0  08:00        0.02
  JT1601               JUNCTION     0.01     0.03  4291.80     0  00:05        0.03
  JT1602               JUNCTION     0.01     0.01  4295.17     0  07:59        0.01
  JT1603               JUNCTION     0.02     7.88  4304.58     0  00:05        7.87
  JT1604               JUNCTION     0.05    11.77  4456.91     0  00:05       11.75
  JT1605               JUNCTION     0.08    14.16  4449.54     0  00:05        6.26
  JT1606               JUNCTION     0.03     3.57  4452.21     0  00:05        3.56
  JT1607               JUNCTION     0.02     0.02  4476.39     0  08:00        0.02
  JT1608               JUNCTION     0.01     0.02  4487.61     0  08:00        0.02
  JT1609               JUNCTION     0.01     0.02  4498.33     0  08:00        0.02
  JT1610               JUNCTION     0.02     0.02  4502.23     0  08:00        0.02
  JT1611               JUNCTION     0.01     0.01  4520.71     0  08:00        0.01
  JT1612               JUNCTION     0.01     0.01  4526.43     0  08:00        0.01
  JT1613               JUNCTION     0.04     8.10  4456.28     0  00:05        8.09
  JT1614               JUNCTION     0.02     6.71  4461.51     0  00:05        6.70
  JT1615               JUNCTION     0.01     0.02  4467.55     0  00:07        0.02
  JT1616               JUNCTION     0.01     0.04  4478.49     0  00:05        0.04
  JT1617               JUNCTION     0.01     0.01  4489.02     0  08:00        0.01
  JT1618               JUNCTION     0.01     0.01  4504.36     0  08:00        0.01
  JT1619               JUNCTION     0.02     0.02  4386.71     0  08:00        0.02
  JT1620               JUNCTION     0.02     0.03  4385.66     0  08:00        0.03
  JT1621               JUNCTION     0.02     0.03  4384.75     0  08:00        0.03
  JT1622               JUNCTION     0.02     0.03  4382.88     0  08:00        0.03
  JT1623               JUNCTION     0.01     0.02  4408.73     0  00:05        0.02
  JT1624               JUNCTION     0.01     0.01  4422.34     0  08:00        0.01
  JT1625               JUNCTION     0.48     7.80  4350.02     0  00:05        7.79
  JT1626               JUNCTION     0.14     0.77  4332.00     0  00:05        0.77
  JT1627               JUNCTION     0.36    14.95  4325.53     0  00:05       14.93
  JT1628               JUNCTION     0.27     6.98  4305.96     0  00:05        6.47
  JT1629               JUNCTION     0.81     6.85  4285.26     0  00:05        6.85
  JT1630               JUNCTION     0.32     4.71  4280.60     0  00:05        4.70
  JT1631               JUNCTION     0.39     5.84  4274.41     0  00:05        3.77
  JT1632               JUNCTION     0.46    10.20  4270.28     0  00:05        3.15
  JT1633               JUNCTION     0.17     0.52  4257.40     0  00:48        0.52
  JT1634               JUNCTION     0.06    10.01  4265.35     0  00:05        6.69
  JT1635               JUNCTION     0.07    10.11  4259.74     0  00:05       10.09
  JT1637               JUNCTION     0.01     0.01  4294.68     0  08:00        0.01
  JT1638               JUNCTION     0.01     0.01  4322.57     0  08:00        0.01
  JT1639               JUNCTION     0.01     0.01  4354.90     0  08:00        0.01
  JT1640               JUNCTION     0.02     0.77  4340.62     0  00:05        0.77
  JT1641               JUNCTION     0.02     9.07  4333.60     0  00:05        9.05
  JT1642               JUNCTION     0.03     8.44  4317.59     0  00:05        4.77
  JT1643               JUNCTION     0.03     8.61  4289.17     0  00:06        0.17
  JT1644               JUNCTION     0.06    11.23  4250.46     0  00:05        0.77
  JT1645               JUNCTION     0.04     0.58  4231.74     0  00:08        0.50
  JT1646               JUNCTION     0.04    10.01  4233.89     0  00:05        9.99
  JT1647               JUNCTION     0.03     0.57  4213.78     0  00:05        0.45
  JT1648               JUNCTION     0.06     9.91  4217.41     0  00:05        8.60
  JT1649               JUNCTION     0.65     5.15  4210.81     0  00:14        4.40
  JT1650               JUNCTION     0.27     0.76  4217.21     0  00:52        0.76
  JT1651               JUNCTION     0.77    10.09  4227.23     0  00:05       10.07
  JT1652               JUNCTION     0.33     7.21  4276.49     0  00:05        7.21
  JT1653               JUNCTION     0.46     8.02  4272.22     0  00:05        8.01
  JT1654               JUNCTION     0.65     9.85  4268.66     0  00:05        8.47
  JT1655               JUNCTION     0.45    10.05  4265.24     0  00:06        4.71
  JT1656               JUNCTION     0.01     0.02  4252.25     0  00:05        0.02
  JT1657               JUNCTION     0.01     0.01  4255.28     0  07:47        0.01
  JT1658               JUNCTION     0.01     0.03  4247.68     0  00:06        0.02
  JT1659               JUNCTION     0.02     0.05  4249.43     0  00:05        0.05
  JT1660               JUNCTION     0.01     0.01  4264.33     0  08:00        0.01
  JT1661               JUNCTION     0.01     0.01  4197.80     0  07:19        0.01
  JT1662               JUNCTION     0.02     0.03  4195.79     0  00:05        0.03
  JT1663               JUNCTION     0.02     0.02  4188.86     0  08:00        0.02
  JT1664               JUNCTION     0.03     5.90  4178.50     0  00:05        1.83
  JT1665               JUNCTION     0.06    11.52  4166.94     0  00:05        4.15
  JT1666               JUNCTION     0.07     9.96  4159.20     0  00:05        0.77
  JT1667               JUNCTION     0.02     0.03  4158.01     0  08:00        0.03
  JT1668               JUNCTION     0.01     0.01  4177.10     0  07:48        0.01
  JT1669               JUNCTION     0.01     0.04  4170.92     0  00:05        0.04
  JT1670               JUNCTION     0.04     7.36  4150.80     0  00:05        0.77
  JT1671               JUNCTION     0.12    12.16  4143.70     0  00:05       12.14
  JT1672               JUNCTION     0.12     9.89  4139.86     0  00:05        7.15
  JT1673               JUNCTION     0.10     9.04  4134.93     0  00:05        6.15
  JT1674               JUNCTION     0.10     9.80  4132.20     0  00:05        5.94
  JT1675               JUNCTION     0.11     8.76  4128.36     0  00:06        6.39
  JT1676               JUNCTION     0.14     9.32  4126.72     0  00:05        7.28
  JT1677               JUNCTION     0.23     8.67  4120.87     0  00:05        8.67
  JT1678               JUNCTION     0.23     6.33  4115.74     0  00:05        6.33
  JT1679               JUNCTION     0.17     6.69  4115.40     0  00:05        4.72
  JT1682               JUNCTION     0.16    13.20  4120.96     0  00:05       13.18
  JT1683               JUNCTION     0.10     5.92  4110.56     0  00:05        5.91
  JT1684               JUNCTION     0.20     9.38  4103.61     0  00:05        9.36
  JT1685               JUNCTION     0.01     0.01  4121.09     0  08:00        0.01
  JT1686               JUNCTION     0.05     6.28  4382.45     0  00:05        5.70
  JT1687               JUNCTION     0.07     6.07  4370.07     0  00:05        6.06
  JT1688               JUNCTION     0.12     6.44  4363.28     0  00:05        6.44
  JT1689               JUNCTION     0.17     7.67  4363.32     0  00:05        6.37
  JT1690               JUNCTION     0.22     9.65  4364.34     0  00:05        9.63
  JT1691               JUNCTION     0.32     9.11  4362.34     0  00:05        6.79
  JT1692               JUNCTION     0.93     9.00  4357.83     0  00:05        9.00
  JT1693               JUNCTION     0.58     8.35  4356.95     0  00:06        6.29
  JT1694               JUNCTION     0.30     5.87  4353.03     0  00:08        2.57
  JT1695               JUNCTION     0.16     0.50  4344.68     0  00:13        0.49
  JT1696               JUNCTION     0.14     0.77  4340.17     0  00:05        0.77
  JT1697               JUNCTION     0.10     0.77  4336.54     0  00:05        0.77
  JT1698               JUNCTION     0.45     5.80  4324.60     0  00:05        5.79
  JT1699               JUNCTION     0.44     4.66  4320.58     0  00:10        3.34
  JT1700               JUNCTION     0.16     0.51  4315.60     0  00:17        0.50
  JT1701               JUNCTION     0.01     0.01  4310.91     0  08:00        0.01
  JT1702               JUNCTION     0.17     6.76  4307.31     0  00:05        0.77
  JT1703               JUNCTION     0.18     7.81  4301.97     0  00:05        7.80
  JT1704               JUNCTION     0.20     5.48  4295.09     0  00:07        1.33
  JT1705               JUNCTION     0.28     8.38  4291.64     0  00:06        3.28
  JT1706               JUNCTION     0.49     9.02  4285.23     0  00:05        9.00
  JT1707               JUNCTION     0.01     0.01  4271.99     0  08:00        0.01
  JT1708               JUNCTION     0.10     8.60  4321.47     0  00:20        8.60
  JT1709               JUNCTION     0.24     8.11  4155.95     0  00:05        0.95
  JT1710               JUNCTION     2.27    10.14  4152.34     0  00:05       10.12
  JT1711               JUNCTION     4.63     9.08  4148.77     0  00:05        7.07
  JT1712               JUNCTION     0.22     1.10  4140.67     0  00:05        1.10
  JT1713               JUNCTION     0.24    10.07  4139.60     0  00:05        8.53
  JT1714               JUNCTION     0.24     8.71  4132.65     0  00:05        8.70
  JT1715               JUNCTION     0.26     5.31  4127.05     0  00:08        1.93
  JT1716               JUNCTION     0.42     8.02  4124.59     0  00:07        4.02
  JT1717               JUNCTION     0.25     3.37  4118.48     0  00:12        2.74
  JT1718               JUNCTION     0.34     7.74  4120.03     0  00:05        7.73
  JT1719               JUNCTION     0.49     8.00  4117.08     0  00:05        6.08
  JT1720               JUNCTION     0.65     6.02  4114.38     0  00:12        5.49
  JT1721               JUNCTION     0.80     6.40  4114.02     0  00:05        6.39
  JT1722               JUNCTION     0.38     6.01  4112.28     0  00:05        6.00
  JT1723               JUNCTION     0.40     3.41  4108.75     0  00:12        2.58
  JT1725               JUNCTION     0.02     0.03  4241.51     0  08:00        0.03
  JT1726               JUNCTION     0.02     0.03  4234.27     0  08:00        0.03
  JT1727               JUNCTION     0.46     6.80  4234.81     0  00:05        3.91
  JT1728               JUNCTION     0.40     7.78  4242.36     0  00:05        7.77
  JT1729               JUNCTION     0.82     4.64  4226.74     0  00:05        4.64
  JT1730               JUNCTION     0.82     4.64  4226.00     0  00:05        4.64
  JT1731               JUNCTION     0.25     9.80  4238.93     0  00:05        9.78
  JT1732               JUNCTION     0.28     8.66  4249.42     0  00:05        8.65
  JT1733               JUNCTION     0.55     9.92  4245.69     0  00:05        9.90
  JT1734               JUNCTION     0.21     4.21  4251.11     0  00:05        4.20
  JT1735               JUNCTION     0.16     2.19  4254.63     0  00:13        0.79
  JT1736               JUNCTION     1.14     9.18  4228.94     0  00:05        7.64
  JT1737               JUNCTION     0.85     9.44  4242.88     0  00:09        7.78
  JT1738               JUNCTION     0.61     9.01  4250.07     0  00:05        8.99
  JT1739               JUNCTION     0.01     0.02  4239.42     0  08:00        0.02
  JT1740               JUNCTION     0.01     0.01  4236.69     0  08:00        0.01
  JT1741               JUNCTION     0.22     3.80  4201.27     0  00:12        2.77
  JT1742               JUNCTION     0.84     6.80  4205.41     0  00:12        5.59
  JT1743               JUNCTION     0.16     4.40  4205.80     0  00:05        4.39
  JT1744               JUNCTION     0.72     6.29  4207.72     0  00:12        5.23
  JT1745               JUNCTION     0.02    11.59  4147.95     0  00:05       11.57
  JT1746               JUNCTION     0.18     9.05  4141.08     0  00:05        6.45
  JT1747               JUNCTION     0.09     8.95  4138.21     0  00:05        8.94
  JT1748               JUNCTION     0.01     0.33  4130.89     0  00:05        0.02
  JT1749               JUNCTION     0.01     0.02  4134.58     0  00:05        0.01
  JT1750               JUNCTION     3.32     6.70  4120.19     0  00:06        6.70
  JT1751               JUNCTION     0.24    10.18  4145.40     0  00:05        5.84
  JT1752               JUNCTION     0.26    12.07  4149.13     0  00:05        6.93
  JT1753               JUNCTION     0.13    12.40  4156.83     0  00:05        5.14
  JT1754               JUNCTION     0.18    11.90  4154.16     0  00:05       11.88
  JT1755               JUNCTION     5.47     8.75  4119.94     0  00:08        6.61
  JT1756               JUNCTION     0.02     0.03  4182.17     0  08:00        0.03
  JT1757               JUNCTION     0.03     1.55  4178.90     0  00:05        1.55
  JT1758               JUNCTION     0.03     8.70  4175.86     0  00:05        8.69
  JT1759               JUNCTION     0.01     0.02  4392.85     0  08:00        0.02
[...]
  365                         0.10      0.10      0.13      0.09         0.08
  367                         0.13      0.13      0.15      0.10         0.02
  37                          0.35      0.35      0.42      0.09         0.09
  375                         0.01      0.01      0.08      0.01         0.01
  379                         0.01      0.01      0.15      0.01         0.01
  381                         0.14      0.16      0.16      0.10         0.09
  383                         0.18      0.18      0.23      0.10         0.09
  385                         0.27      0.28      0.80      0.01         0.01
  39                          0.42      0.43      0.44      0.40         0.31
  407                         0.09      0.09      0.09      0.08         0.01
  409                         0.09      0.09      0.10      0.09         0.01
  41                          0.46      0.46      0.48      0.30         0.29
  415                         0.01      0.01      0.08      0.01         0.01
  417                         0.08      0.09      0.08      0.09         0.08
  419                         0.08      0.08      0.10      0.08         0.01
  421                         0.10      0.12      0.10      0.13         0.09
  423                         0.02      0.02      0.10      0.02         0.01
  425                         0.11      0.11      0.14      0.09         0.09
  427                         0.06      0.14      0.08      0.08         0.01
  429                         0.18      0.18      0.21      0.10         0.09
  43                          0.47      0.50      0.47      0.45         0.41
  431                         0.22      0.22      0.25      0.01         0.01
  433                         0.24      0.26      0.24      0.27         0.24
  435                         0.20      0.26      0.20      0.28         0.20
  437                         0.22      0.22      0.27      0.10         0.01
  439                         0.26      0.29      0.26      0.32         0.26
  441                         0.27      0.27      0.35      0.08         0.01
  443                         0.31      0.37      0.31      0.38         0.31
  445                         0.24      0.32      0.31      0.08         0.01
  447                         0.27      0.41      0.27      0.33         0.19
  449                         0.31      0.31      0.39      0.01         0.01
  45                          0.51      0.51      0.54      0.08         0.01
  455                         0.01      0.01      0.08      0.01         0.01
  463                         0.08      0.08      0.08      0.08         0.01
  465                         0.09      0.09      0.09      0.09         0.09
  467                         0.08      0.08      0.24      0.08         0.01
  47                          0.54      0.56      0.56      0.11         0.08
  477                         0.09      0.09      0.09      0.01         0.01
  479                         0.08      0.08      0.09      0.08         0.01
  481                         0.09      0.09      0.09      0.09         0.09
  487                         0.01      0.01      0.08      0.01         0.01
  489                         0.05      0.05      0.08      0.01         0.01
  49                          0.57      0.57      0.60      0.08         0.01
  491                         0.09      0.09      0.12      0.01         0.01
  493                         0.13      0.13      0.23      0.11         0.01
  495                         0.19      0.23      0.19      0.24         0.19
  497                         0.04      0.22      0.04      0.23         0.04
  499                         0.06      0.06      0.23      0.01         0.01
  501                         0.33      0.33      0.35      0.09         0.01
  503                         0.19      0.19      0.39      0.01         0.01
  505                         0.42      0.43      0.45      0.22         0.20
  507                         0.46      0.46      0.50      0.38         0.29
  509                         0.39      0.39      0.50      0.09         0.01
  51                          0.53      0.61      0.54      0.51         0.41
  511                         0.52      0.52      0.62      0.09         0.01
  513                         0.68      0.68      0.95      0.09         0.01
  517                         0.01      0.01      1.05      0.01         0.01
  523                         0.08      0.08      0.08      0.01         0.01
  525                         0.09      0.09      0.09      0.09         0.09
  527                         0.08      0.08      0.12      0.09         0.01
  529                         0.05      0.13      0.82      0.08         0.01
  53                          0.61      0.63      0.62      0.54         0.43
  531                         0.97      0.97      1.43      0.01         0.01
  543                         0.01      0.01      0.08      0.01         0.01
  545                         0.08      0.08      0.09      0.09         0.01
  547                         0.01      0.10      0.01      0.10         0.01
  549                         0.09      0.09      0.15      0.01         0.01
  55                          0.67      0.67      0.69      0.58         0.49
  561                         0.08      0.08      0.08      0.08         0.01
  563                         0.01      0.01      0.12      0.01         0.01
  565                         0.13      0.13      0.15      0.08         0.09
  567                         0.15      0.17      0.15      0.19         0.07
  569                         0.14      0.22      0.14      0.23         0.14
  57                          0.71      0.71      0.74      0.10         0.10
  571                         0.16      0.16      0.19      0.08         0.01
  573                         0.21      0.21      0.23      0.10         0.01
  575                         0.21      0.24      0.21      0.14         0.02
  581                         0.01      0.01      0.08      0.01         0.01
  585                         0.08      0.08      0.08      0.09         0.01
  589                         0.01      0.01      0.08      0.01         0.01
  59                          0.72      0.76      0.72      0.77         0.72
  591                         0.09      0.09      0.09      0.10         0.09
  593                         0.08      0.08      0.08      0.10         0.08
  595                         0.08      0.08      0.08      0.08         0.01
  597                         0.09      0.09      0.09      0.09         0.09
  599                         0.10      0.10      0.21      0.09         0.01
  601                         0.25      0.25      0.28      0.22         0.20
  603                         0.29      0.29      0.30      0.20         0.11
  605                         0.21      0.31      0.21      0.31         0.21
  607                         0.12      0.21      0.12      0.22         0.12
  609                         0.09      0.22      0.09      0.15         0.01
  61                          0.74      0.75      0.78      0.20         0.21
  611                         0.08      0.10      0.14      0.01         0.01
  613                         0.17      0.17      0.25      0.08         0.01
  615                         0.28      0.28      0.51      0.09         0.01
  617                         0.29      0.29      0.43      0.09         0.01
  619                         0.44      0.45      0.50      0.09         0.01
  621                         0.47      0.54      0.47      0.51         0.47
  623                         0.34      0.48      0.34      0.41         0.25
  625                         0.37      0.37      0.41      0.06         0.05
  627                         0.44      0.46      0.48      0.40         0.30
  629                         0.27      0.51      0.27      0.52         0.19
  63                          0.80      0.80      0.83      0.14         0.05
  631                         0.01      0.32      0.01      0.37         0.01
  633                         0.01      0.01      0.71      0.01         0.01
  637                         0.01      0.01      0.01      0.01         0.01
  639                         0.08      0.09      0.43      0.01         0.08
  641                         0.24      0.24      0.74      0.01         0.01
  645                         0.01      0.01      2.48      0.01         0.01
  649                         0.01      0.01     17.72      0.01         0.01
  65                          0.74      0.86      0.76      0.83         0.71
  659                         0.08      0.09      0.08      0.09         0.08
  661                         0.01      0.09      0.01      0.09         0.01
  663                         0.08      0.08      0.08      0.08         0.01
  665                         0.01      0.01      0.08      0.09         0.01
  667                         0.08      0.08      0.08      0.10         0.01
  669                         0.09      0.09      0.17      0.01         0.01
  67                          0.87      0.87      0.92      0.08         0.01
  671                         0.30      0.30      0.32      0.09         0.09
  677                         0.01      0.01      0.08      0.01         0.01
  679                         0.08      0.09      0.08      0.08         0.08
  681                         0.08      0.09      0.08      0.01         0.08
  683                         0.01      0.08      0.04      0.08         0.01
  685                         0.27      0.27      0.29      0.10         0.01
  687                         0.08      0.08      0.27      0.09         0.08
  689                         0.01      0.01      0.95      0.01         0.01
  69                          0.91      0.94      0.91      0.94         0.90
  699                         0.42      0.42      0.94      0.25         0.25
  701                         1.02      1.02      1.16      0.18         0.26
  703                         0.01      0.01      0.71      0.01         0.01
  705                         1.11      1.19      1.16      0.11         0.02
  707                         1.18      1.18      1.31      0.01         0.01
  709                         0.94      0.94      1.03      0.01         0.01
  71                          0.86      0.95      0.86      0.92         0.80
  711                         1.05      1.05      1.16      0.01         0.01
  713                         0.73      0.73      1.12      0.08         0.01
  715                         1.30      1.31      1.30      0.18         0.17
  717                         1.32      1.32      1.33      0.24         0.23
  719                         0.93      0.93      1.18      0.08         0.01
  721                         1.20      1.20      1.30      0.08         0.08
  725                         0.01      0.01      0.71      0.01         0.01
  727                         0.78      0.78      1.22      0.01         0.01
  729                         1.26      1.27      1.39      0.08         0.01
  73                          0.83      0.83      0.94      0.01         0.01
  737                         0.11      0.11      0.11      0.08         0.08
  739                         0.09      0.09      0.09      0.08         0.08
  741                         0.01      0.08      0.01      0.08         0.01
  743                         0.08      0.08      0.08      0.08         0.08
  745                         0.08      0.08      0.08      0.08         0.01
  75                          0.95      0.95      0.99      0.28         0.28
  753                         0.01      0.01      0.08      0.01         0.01
  755                         0.08      0.09      0.08      0.10         0.08
  757                         0.08      0.08      0.08      0.08         0.01
  759                         0.08      0.09      0.08      0.18         0.01
  761                         0.09      0.09      0.11      0.09         0.08
  763                         0.02      0.15      0.02      0.15         0.01
  765                         0.03      0.03      0.58      0.08         0.01
  77                          0.99      0.99      1.01      0.27         0.27
  789                         0.01      0.01      0.08      0.01         0.01
  79                          1.02      1.02      1.04      0.78         0.69
  791                         0.08      0.08      0.08      0.09         0.01
  793                         0.01      0.01      8.93      0.01         0.01
  797                         0.08      0.11      0.08      0.12         0.08
  799                         0.01      0.10      0.01      0.12         0.01
  801                         0.01      0.01      0.01      0.02         0.01
  803                         0.08      0.08      0.08      0.01         0.01
  805                         0.08      0.08      0.20      0.09         0.01
  807                         0.11      0.22      0.12      0.10         0.07
  809                         0.09      0.24      0.09      0.25         0.01
  81                          1.06      1.06      1.32      0.76         0.76
  817                         0.01      0.01      0.08      0.01         0.01
  819                         0.01      0.08      0.01      0.08         0.01
  821                         0.01      0.01      0.08      0.01         0.01
  823                         0.08      0.10      0.08      0.10         0.08
  825                         0.08      0.08      0.09      0.08         0.01
  827                         0.11      0.13      0.12      0.11         0.09
  829                         0.13      0.13      0.20      0.09         0.09
  83                          1.36      1.36      1.39      0.84         0.75
  831                         0.08      0.25      0.08      0.30         0.01
  833                         0.08      0.08      0.19      0.08         0.01
  835                         0.23      0.23      0.33      0.10         0.09
  837                         0.33      0.34      0.38      0.30         0.21
  839                         0.39      0.40      0.39      0.42         0.31
  841                         0.29      0.42      0.29      0.47         0.29
  843                         0.29      0.30      0.29      0.43         0.29
  845                         0.36      0.40      0.36      0.43         0.27
  847                         0.01      0.42      0.01      0.44         0.01
  849                         0.01      0.01      0.01      0.01         0.01
  85                          1.32      1.41      1.36      0.43         0.34
  851                         0.01      0.02      0.09      0.02         0.01
  853                         0.08      0.08      0.16      0.02         0.01
  855                         0.08      0.23      0.08      0.23         0.01
  857                         0.09      0.09      0.09      0.08         0.01
  859                         0.09      0.09      0.14      0.09         0.01
  861                         0.09      0.21      0.09      0.25         0.09
  863                         0.08      0.08      0.80      0.08         0.01
  865                         0.82      0.82      0.86      0.08         0.08
  867                         0.87      0.87      0.91      0.09         0.01
  869                         0.91      0.91      0.93      0.58         0.57
  87                          1.34      1.37      1.43      1.30         1.27
  871                         0.91      0.91      1.07      0.08         0.01
  877                         0.01      0.01      0.08      0.01         0.01
  879                         0.08      0.09      0.08      0.09         0.08
  881                         0.08      0.08      0.10      0.08         0.01
  883                         0.09      0.13      0.09      0.14         0.09
  885                         1.09      1.10      1.09      1.10         1.06
  887                         0.01      0.01      0.01      0.01         0.01
  89                          1.09      1.45      1.09      1.46         1.09
  891                         0.01      0.01      0.09      0.01         0.01
  893                         0.01      0.10      0.01      0.02         0.01
  895                         0.01      0.01      0.08      0.01         0.01
  897                         0.09      0.09      0.09      0.09         0.09
  899                         0.08      0.08      0.08      0.08         0.01
  901                         0.08      0.08      0.08      0.08         0.01
  903                         0.08      0.08      1.00      0.09         0.01
  91                          0.39      1.19      0.39      1.29         0.39
  923                         0.01      0.01      0.08      0.01         0.01
  925                         0.08      0.08      0.08      0.01         0.01
  927                         0.01      0.09      0.01      0.10         0.01
  929                         0.09      0.09      0.10      0.01         0.01
  93                          0.09      0.71      0.09      0.90         0.01
  931                         0.10      0.11      0.10      0.12         0.01
  933                         0.09      0.10      0.09      0.12         0.09
  935                         0.08      0.08      0.08      0.08         0.01
  937                         0.01      0.01      0.08      0.01         0.01
  939                         0.08      0.08      0.09      0.01         0.01
  941                         0.09      0.09      0.10      0.09         0.09
  943                         0.10      0.10      0.12      0.08         0.01
  947                         0.01      0.01      0.12      0.01         0.01
  949                         0.14      0.14      0.17      0.08         0.08
  95                          0.09      0.09      0.09      0.08         0.01
  951                         0.17      0.17      0.18      0.17         0.16
  953                         0.17      0.17      0.19      0.08         0.01
  955                         0.08      0.22      0.08      0.23         0.08
  957                         0.08      0.09      0.09      0.01         0.01
  959                         0.09      0.09      0.09      0.08         0.01
  961                         0.09      0.09      0.10      0.09         0.09
  963                         0.11      0.11      0.18      0.09         0.01
  965                         0.18      0.18      0.21      0.08         0.01
  967                         0.23      0.23      0.25      0.09         0.01
  969                         0.27      0.27      0.28      0.24         0.24
  97                          0.08      0.08      0.59      0.09         0.01
  971                         0.29      0.29      0.32      0.16         0.16
  973                         0.32      0.34      0.33      0.35         0.24
  975                         0.09      0.09      0.27      0.09         0.08
  977                         0.31      0.31      1.09      0.08         0.01
  987                         0.08      0.08      0.08      0.01         0.01
  989                         0.08      0.08      0.08      0.08         0.01
  99                          0.03      0.84      0.03      1.48         0.03
  991                         0.08      0.09      0.08      0.08         0.01
  993                         0.09      0.09      0.09      0.09         0.08
  995                         0.09      0.09      0.09      0.08         0.01
  997                         0.09      0.09      0.09      0.01         0.01
  999                         0.08      0.08      0.09      0.09         0.08
  

  Analysis begun on:  Fri Mar  6 13:43:02 2026
  Analysis ended on:  Fri Mar  6 13:43:37 2026
  Total elapsed time: 00:00:35