
  EPA STORM WATER MANAGEMENT MODEL - VERSION 5.2 (Build 5.2.4)
  ------------------------------------------------------------

  
  ****************
  Analysis Options
  ****************
  Flow Units ............... MGD
  Process Models:
    Rainfall/Runoff ........ NO
    RDII ................... NO
    Snowmelt ............... NO
    Groundwater ............ NO
    Flow Routing ........... YES
    Ponding Allowed ........ NO
    Water Quality .......... NO
  Flow Routing Method ...... DYNWAVE
  Surcharge Method ......... EXTRAN
  Starting Date ............ 01/01/2002 00:00:00
  Ending Date .............. 01/02/2002 12:00:00
  Antecedent Dry Days ...... 5.0
  Report Time Step ......... 00:05:00
  Routing Time Step ........ 60.00 sec
  Variable Time Step ....... YES
  Maximum Trials ........... 8
  Number of Threads ........ 1
  Head Tolerance ........... 0.001000 ft
  
  
  **************************        Volume        Volume
  Flow Routing Continuity        acre-feet      10^6 gal
  **************************     ---------     ---------
  Dry Weather Inflow .......        93.160        30.358
  Wet Weather Inflow .......         0.000         0.000
  Groundwater Inflow .......         0.000         0.000
  RDII Inflow ..............         0.000         0.000
  External Inflow ..........         0.000         0.000
  External Outflow .........        91.957        29.965
  Flooding Loss ............         0.925         0.302
  Evaporation Loss .........         0.000         0.000
  Exfiltration Loss ........         0.000         0.000
  Initial Stored Volume ....         0.000         0.000
  Final Stored Volume ......         0.272         0.089
  Continuity Error (%) .....         0.007
  
  
  ***************************
  Time-Step Critical Elements
  ***************************
  Link 5-1-2L1 (99.77%)
  
  
  ********************************
  Highest Flow Instability Indexes
  ********************************
  All links are stable.
  
  
  *********************************
  Most Frequent Nonconverging Nodes
  *********************************
  Node MAIN_LS (0.41%)
  Node 4-1-4 (0.37%)
  Node 4-1-6 (0.32%)
  Node 4-1-5 (0.32%)
  Node 4-1-7 (0.30%)
  
  
  *************************
  Routing Time Step Summary
  *************************
  Minimum Time Step           :     1.04 sec
  Average Time Step           :     4.29 sec
  Maximum Time Step           :     9.31 sec
  % of Time in Steady State   :     0.00
  Average Iterations per Step :     2.05
  % of Steps Not Converging   :     0.41
  Time Step Frequencies       :
     60.000 -  6.645 sec      :     0.14 %
      6.645 -  0.736 sec      :    99.86 %
      0.736 -  0.082 sec      :     0.00 %
      0.082 -  0.009 sec      :     0.00 %
      0.009 -  0.001 sec      :     0.00 %
  
  
  ******************
  Node Depth Summary
  ******************
  
  ---------------------------------------------------------------------------------
                                 Average  Maximum  Maximum  Time of Max    Reported
                                   Depth    Depth      HGL   Occurrence   Max Depth
  Node                 Type         Feet     Feet     Feet  days hr:min        Feet
  ---------------------------------------------------------------------------------
  3-1-1                JUNCTION     0.47     0.47   169.37     1  09:00        0.47
  3-2-1                JUNCTION     0.76     0.77   176.36     0  09:00        0.77
  3-2-2                JUNCTION     0.72     0.73   182.44     1  09:00        0.73
  3-2-3                JUNCTION     0.69     0.69   184.69     1  09:00        0.69
  3-2-4                JUNCTION     0.74     0.75   188.81     0  09:00        0.75
  3-2-5                JUNCTION     1.69     1.72   190.01     0  09:00        1.72
  3-2-6                JUNCTION     2.39     2.47   191.49     0  09:00        2.47
  4-1-1                JUNCTION     2.82     2.93   192.53     1  09:00        2.93
  4-1-2                JUNCTION     3.84     4.00   194.15     0  09:00        4.00
  4-1-3                JUNCTION     4.98     5.07   202.44     1  09:00        5.07
  4-1-4                JUNCTION    10.45    10.49   208.69     0  09:00       10.49
  4-1-5                JUNCTION     9.81     9.83   208.83     0  09:00        9.83
  4-1-6                JUNCTION     9.54     9.57   208.87     1  09:00        9.57
  4-1-7                JUNCTION     9.29     9.31   208.91     1  09:00        9.31
  4-1-8                JUNCTION     8.07     8.08   209.03     0  09:00        8.08
  4-2-1                JUNCTION     3.07     3.28   194.24     0  09:00        3.28
  4-2-2                JUNCTION     0.11     0.16   199.05     0  09:00        0.16
  4-2-3                JUNCTION     0.20     0.29   200.41     0  09:00        0.29
  4-8-1                JUNCTION     7.03     7.03   209.01     0  07:03        7.03
  4-8-2                JUNCTION     5.75     5.75   209.00     0  00:00        5.75
  5-1-1                JUNCTION     1.75     1.76    26.17     1  09:02        1.76
  5-1-10               JUNCTION     1.49     1.50    41.12     0  09:00        1.50
  5-1-11               JUNCTION     1.39     1.40    45.33     0  09:00        1.40
  5-1-12               JUNCTION     1.05     1.05    53.52     1  09:00        1.05
  5-1-2                JUNCTION     1.23     1.23    26.13     1  09:02        1.23
  5-1-3                JUNCTION     1.63     1.63    27.56     1  09:02        1.63
  5-1-4                JUNCTION     1.96     1.97    28.19     0  09:02        1.97
  5-1-5                JUNCTION     1.59     1.60    29.60     0  09:01        1.60
  5-1-6                JUNCTION     0.97     0.97    33.97     0  09:01        0.97
  5-1-7                JUNCTION     1.80     1.81    36.81     0  09:01        1.81
  5-1-8                JUNCTION     1.32     1.33    37.85     0  09:01        1.33
  5-1-9                JUNCTION     2.21     2.22    39.72     0  09:01        2.22
  5-8-1                JUNCTION     0.50     0.50    83.26     0  09:00        0.50
  MAIN_LS              OUTFALL      1.87     1.87    23.87     0  09:02        1.87
  
  
  *******************
  Node Inflow Summary
  *******************
  
  -------------------------------------------------------------------------------------------------
                                  Maximum  Maximum                  Lateral       Total        Flow
                                  Lateral    Total  Time of Max      Inflow      Inflow     Balance
                                   Inflow   Inflow   Occurrence      Volume      Volume       Error
  Node                 Type           MGD      MGD  days hr:min    10^6 gal    10^6 gal     Percent
  -------------------------------------------------------------------------------------------------
  3-1-1                JUNCTION     2.778    6.295     1  09:00        4.05        9.34       0.022
  3-2-1                JUNCTION     0.000    3.517     0  09:00           0        5.17       0.018
  3-2-2                JUNCTION     0.132    3.517     0  09:00       0.192        5.17       0.044
  3-2-3                JUNCTION     0.000    3.385     1  09:00           0        4.98       0.021
  3-2-4                JUNCTION     0.000    3.385     0  09:00           0        4.98       0.022
  3-2-5                JUNCTION     0.000    3.385     1  09:00           0        4.98       0.033
  3-2-6                JUNCTION     0.000    3.385     1  09:00           0        4.98       0.036
  4-1-1                JUNCTION     0.000    3.385     0  09:00           0        4.98       0.037
  4-1-2                JUNCTION     0.000    3.385     0  09:00           0        4.99       0.067
  4-1-3                JUNCTION     0.000    3.267     0  02:00           0        4.87       0.043
  4-1-4                JUNCTION     2.725    3.267     1  02:00        3.97        4.88       0.038
  4-1-5                JUNCTION     0.000    0.542     1  02:00           0       0.792       0.150
  4-1-6                JUNCTION     0.000    0.542     0  02:00           0       0.791       0.080
  4-1-7                JUNCTION     0.290    0.542     0  02:00       0.423       0.793       0.183
  4-1-8                JUNCTION     0.325    0.325     0  00:00       0.474       0.489       0.378
  4-2-1                JUNCTION     0.000    0.146     0  09:00           0       0.117       0.712
  4-2-2                JUNCTION     0.000    0.146     0  09:00           0       0.117       0.073
  4-2-3                JUNCTION     0.146    0.146     0  08:00       0.115       0.117       0.322
  4-8-1                JUNCTION     0.000    0.101     0  09:00           0       0.131       0.966
  4-8-2                JUNCTION     0.216    0.317     0  09:00        0.17       0.302       0.119
  5-1-1                JUNCTION     7.791   20.090     0  09:02        11.4          30       0.009
  5-1-10               JUNCTION     0.000   12.299     0  09:00           0        18.3       0.012
  5-1-11               JUNCTION     0.127   12.299     0  09:00       0.185        18.3       0.036
  5-1-12               JUNCTION     5.877   12.172     0  09:00        8.57        18.1       0.016
  5-1-2                JUNCTION     0.000   12.299     0  09:02           0        18.3       0.016
  5-1-3                JUNCTION     0.000   12.299     0  09:02           0        18.3       0.042
  5-1-4                JUNCTION     0.000   12.299     0  09:01           0        18.3       0.044
  5-1-5                JUNCTION     0.000   12.299     0  09:01           0        18.3       0.019
  5-1-6                JUNCTION     0.000   12.299     1  09:01           0        18.3       0.011
  5-1-7                JUNCTION     0.000   12.299     0  09:01           0        18.3       0.022
  5-1-8                JUNCTION     0.000   12.299     0  09:01           0        18.3       0.038
  5-1-9                JUNCTION     0.000   12.299     0  09:00           0        18.3       0.070
  5-8-1                JUNCTION     0.000    6.295     0  09:00           0        9.33       0.007
  MAIN_LS              OUTFALL      0.000   20.090     0  09:02           0          30       0.000
  
  
  **********************
  Node Surcharge Summary
  **********************
  
  Surcharging occurs when water rises above the top of the highest conduit.
  ---------------------------------------------------------------------
                                               Max. Height   Min. Depth
                                   Hours       Above Crown    Below Rim
  Node                 Type      Surcharged           Feet         Feet
  ---------------------------------------------------------------------
  3-2-5                JUNCTION       35.00          0.471        5.989
  3-2-6                JUNCTION       35.00          1.220        0.510
  4-1-1                JUNCTION       35.00          1.681        5.469
  4-1-2                JUNCTION       35.00          2.753        9.847
  4-1-3                JUNCTION       35.00          4.067        9.563
  4-1-4                JUNCTION       35.00          9.489        5.311
  4-1-5                JUNCTION       35.00          8.834        9.166
  4-1-6                JUNCTION       35.00          8.569       11.131
  4-1-7                JUNCTION       35.00          8.313        9.087
  4-1-8                JUNCTION       35.00          7.248        5.969
  4-2-1                JUNCTION       35.00          2.616        6.758
  4-8-1                JUNCTION       35.00          6.198        3.989
  4-8-2                JUNCTION       35.00          4.917        0.000
  
  
  *********************
  Node Flooding Summary
  *********************
  
  Flooding refers to all water that overflows a node, whether it ponds or not.
  --------------------------------------------------------------------------
                                                             Total   Maximum
                                 Maximum   Time of Max       Flood    Ponded
                        Hours       Rate    Occurrence      Volume     Depth
  Node                 Flooded       MGD   days hr:min    10^6 gal      Feet
  --------------------------------------------------------------------------
  4-8-2                  35.00     0.317      0  09:00       0.296     0.000
  
  
  ***********************
  Outfall Loading Summary
  ***********************
  
  -----------------------------------------------------------
                         Flow       Avg       Max       Total
                         Freq      Flow      Flow      Volume
  Outfall Node           Pcnt       MGD       MGD    10^6 gal
  -----------------------------------------------------------
  MAIN_LS              100.00    20.037    20.090      29.963
  -----------------------------------------------------------
  System               100.00    20.037    20.090      29.963
  
  
  ********************
  Link Flow Summary
  ********************
  
  -----------------------------------------------------------------------------
                                 Maximum  Time of Max   Maximum    Max/    Max/
                                  |Flow|   Occurrence   |Veloc|    Full    Full
  Link                 Type          MGD  days hr:min    ft/sec    Flow   Depth
  -----------------------------------------------------------------------------
  3-1-1L1              CONDUIT     6.295     0  09:00     20.79    0.21    0.31
  3-2-1L1              CONDUIT     3.517     1  09:00      8.98    0.57    0.49
  3-2-2L1              CONDUIT     3.517     0  09:00      7.32    0.64    0.58
  3-2-3L1              CONDUIT     3.385     0  09:00      7.25    0.60    0.57
  3-2-4L1              CONDUIT     3.385     1  09:00      7.12    0.65    0.58
  3-2-5L1              CONDUIT     3.385     0  09:00      4.97    1.87    0.80
  3-2-6L1              CONDUIT     3.385     1  09:00      4.27    1.42    1.00
  4-1-1L1              CONDUIT     3.385     1  09:00      4.27    1.34    1.00
  4-1-2L1              CONDUIT     3.385     0  09:00      4.27    1.72    1.00
  4-1-3L1              CONDUIT     3.267     0  02:00      6.44    1.08    1.00
  4-1-4L1              CONDUIT     3.267     0  02:00      6.44    2.77    1.00
  4-1-5L1              CONDUIT     0.542     1  02:00      1.07    0.45    1.00
  4-1-6L1              CONDUIT     0.542     1  02:00      1.07    0.36    1.00
  4-1-7L1              CONDUIT     0.542     0  02:00      1.07    0.40    1.00
  4-1-8L1              CONDUIT     0.252     0  02:00      0.71    0.33    1.00
  4-2-1L1              CONDUIT     0.146     1  09:00      0.65    0.33    1.00
  4-2-2L1              CONDUIT     0.146     0  09:00      0.99    0.13    0.62
  4-2-3L1              CONDUIT     0.146     0  09:00      1.84    0.34    0.38
  4-8-1L1              CONDUIT     0.101     0  09:00      0.29    0.15    1.00
  4-8-2L1              CONDUIT     0.101     1  09:00      0.29    0.08    1.00
  5-1-10L1             CONDUIT    12.299     0  09:00      6.53    0.91    0.87
  5-1-11L1             CONDUIT    12.299     0  09:00      8.75    1.01    0.85
  5-1-12L1             CONDUIT    12.172     0  09:00     10.52    0.67    0.70
  5-1-1L1              CONDUIT    20.090     0  09:02     10.37    1.05    0.91
  5-1-2L1              CONDUIT    12.299     0  09:02      7.54    0.70    0.75
  5-1-3L1              CONDUIT    12.299     0  09:02      6.54    0.71    0.57
  5-1-4L1              CONDUIT    12.299     0  09:02      4.30    0.90    0.60
  5-1-5L1              CONDUIT    12.299     0  09:01      6.43    0.98    0.89
  5-1-6L1              CONDUIT    12.299     0  09:01     10.06    0.59    0.73
  5-1-7L1              CONDUIT    12.299     1  09:01      8.18    0.90    0.69
  5-1-8L1              CONDUIT    12.299     0  09:01      7.21    0.78    0.78
  5-1-9L1              CONDUIT    12.299     0  09:01      5.11    1.10    0.71
  5-8-1L1              CONDUIT     6.295     0  09:00      9.47    0.18    0.44
  
  
  ***************************
  Flow Classification Summary
  ***************************
  
  -------------------------------------------------------------------------------------
                      Adjusted    ---------- Fraction of Time in Flow Class ---------- 
                       /Actual         Up    Down  Sub   Sup   Up    Down  Norm  Inlet 
  Conduit               Length    Dry  Dry   Dry   Crit  Crit  Crit  Crit  Ltd   Ctrl  
  -------------------------------------------------------------------------------------
  3-1-1L1                 1.00   0.00  0.00  0.00  0.00  0.00  0.00  1.00  0.00  0.00
  3-2-1L1                 1.00   0.00  0.00  0.00  0.00  1.00  0.00  0.00  0.00  0.00
  3-2-2L1                 1.00   0.00  0.00  0.00  0.00  0.00  0.00  1.00  0.00  0.00
  3-2-3L1                 1.00   0.00  0.00  0.00  0.00  1.00  0.00  0.00  1.00  0.00
  3-2-4L1                 1.00   0.00  0.00  0.00  0.00  1.00  0.00  0.00  0.00  0.00
  3-2-5L1                 1.00   0.00  0.00  0.00  1.00  0.00  0.00  0.00  0.00  0.00
  3-2-6L1                 1.00   0.00  0.00  0.00  1.00  0.00  0.00  0.00  0.00  0.00
  4-1-1L1                 1.00   0.00  0.00  0.00  1.00  0.00  0.00  0.00  0.00  0.00
  4-1-2L1                 1.00   0.00  0.00  0.00  1.00  0.00  0.00  0.00  0.00  0.00
  4-1-3L1                 1.00   0.00  0.00  0.00  1.00  0.00  0.00  0.00  0.00  0.00
  4-1-4L1                 1.00   0.00  0.00  0.00  1.00  0.00  0.00  0.00  0.00  0.00
  4-1-5L1                 1.00   0.00  0.00  0.00  1.00  0.00  0.00  0.00  0.00  0.00
  4-1-6L1                 1.00   0.00  0.00  0.00  1.00  0.00  0.00  0.00  0.00  0.00
  4-1-7L1                 1.00   0.00  0.00  0.00  1.00  0.00  0.00  0.00  0.00  0.00
  4-1-8L1                 1.00   0.00  0.00  0.00  1.00  0.00  0.00  0.00  0.00  0.00
  4-2-1L1                 1.00   0.00  0.00  0.00  1.00  0.00  0.00  0.00  0.00  0.00
  4-2-2L1                 1.00   0.00  0.00  0.00  1.00  0.00  0.00  0.00  1.00  0.00
  4-2-3L1                 1.00   0.00  0.00  0.00  0.00  0.00  0.00  1.00  0.00  0.00
  4-8-1L1                 1.00   0.00  0.00  0.00  1.00  0.00  0.00  0.00  0.00  0.00
  4-8-2L1                 1.00   0.00  0.00  0.00  1.00  0.00  0.00  0.00  0.00  0.00
  5-1-10L1                1.00   0.00  0.00  0.00  1.00  0.00  0.00  0.00  0.52  0.00
  5-1-11L1                1.00   0.00  0.00  0.00  0.00  0.00  0.00  1.00  0.00  0.00
  5-1-12L1                1.00   0.00  0.00  0.00  0.00  1.00  0.00  0.00  1.00  0.00
  5-1-1L1                 1.00   0.00  0.00  0.00  0.00  1.00  0.00  0.00  1.00  0.00
  5-1-2L1                 2.45   0.00  0.00  0.00  0.00  1.00  0.00  0.00  1.00  0.00
  5-1-3L1                 1.00   0.00  0.00  0.00  0.00  1.00  0.00  0.00  0.00  0.00
  5-1-4L1                 1.00   0.00  0.00  0.00  1.00  0.00  0.00  0.00  0.00  0.00
  5-1-5L1                 1.00   0.00  0.00  0.00  1.00  0.00  0.00  0.00  1.00  0.00
  5-1-6L1                 1.00   0.00  0.00  0.00  0.00  1.00  0.00  0.00  1.00  0.00
  5-1-7L1                 1.00   0.00  0.00  0.00  0.00  1.00  0.00  0.00  0.00  0.00
  5-1-8L1                 1.00   0.00  0.00  0.00  0.00  1.00  0.00  0.00  1.00  0.00
  5-1-9L1                 1.00   0.00  0.00  0.00  1.00  0.00  0.00  0.00  0.00  0.00
  5-8-1L1                 1.00   0.00  0.00  0.00  0.00  1.00  0.00  0.00  1.00  0.00
  
  
  *************************
  Conduit Surcharge Summary
  *************************
  
  ----------------------------------------------------------------------------
                                                           Hours        Hours 
                         --------- Hours Full --------   Above Full   Capacity
  Conduit                Both Ends  Upstream  Dnstream   Normal Flow   Limited
  ----------------------------------------------------------------------------
  3-2-5L1                     0.01     35.00      0.01     35.00         0.01
  3-2-6L1                    35.00     35.00     35.00     35.00        35.00
  4-1-1L1                    35.00     35.00     35.00     35.00        35.00
  4-1-2L1                    35.00     35.00     35.00     35.00        35.00
  4-1-3L1                    35.00     35.00     35.00     35.00        35.00
  4-1-4L1                    35.00     35.00     35.00     35.00        35.00
  4-1-5L1                    35.00     35.00     35.00      0.01         0.01
  4-1-6L1                    35.00     35.00     35.00      0.01         0.01
  4-1-7L1                    35.00     35.00     35.00      0.01         0.01
  4-1-8L1                    35.00     35.00     35.00      0.01         0.01
  4-2-1L1                    35.00     35.00     35.00      0.01         0.01
  4-2-2L1                     0.01      0.01     35.00      0.01         0.01
  4-8-1L1                    35.00     35.00     35.00      0.01         0.01
  4-8-2L1                    35.00     35.00     35.00      0.01         0.01
  5-1-10L1                    0.01      0.01     35.00      0.01         0.01
  5-1-11L1                    0.01      0.01      0.01     35.00         0.01
  5-1-1L1                     0.01      0.01      0.01     35.00         0.01
  5-1-9L1                     0.01      0.01      0.01     35.00         0.01
  

  Analysis begun on:  Fri Mar  6 13:43:37 2026
  Analysis ended on:  Fri Mar  6 13:43:38 2026
  Total elapsed time: 00:00:01