
  EPA STORM WATER MANAGEMENT MODEL - VERSION 5.2 (Build 5.2.4)
  ------------------------------------------------------------

  
  ERROR 211: invalid number -0.100000 at line 211 of [JUNC] section:
  145	6138.466211	-0.100000	0.000000	0.000000	0.000000

  
  ERROR 211: invalid number -0.100000 at line 213 of [JUNC] section:
  146	5916.065332	-0.100000	0.000000	0.000000	0.000000

  
  ERROR 211: invalid number -0.100000 at line 217 of [JUNC] section:
  148	5905.447168	-0.100000	0.000000	0.000000	0.000000

  
  ERROR 211: invalid number -0.100000 at line 219 of [JUNC] section:
  149	5937.586816	-0.100000	0.000000	0.000000	0.000000

  
  ERROR 211: invalid number -0.100000 at line 223 of [JUNC] section:
  150	5933.853906	-0.100000	0.000000	0.000000	0.000000

  
  ERROR 211: invalid number -0.100000 at line 227 of [JUNC] section:
  152	5974.953027	-0.100000	0.000000	0.000000	0.000000

  
  ERROR 211: invalid number -0.100000 at line 231 of [JUNC] section:
  154	5996.090234	-0.100000	0.000000	0.000000	0.000000

  
  ERROR 211: invalid number -0.100000 at line 241 of [JUNC] section:
  159	5960.704004	-0.100000	0.000000	0.000000	0.000000

  
  ERROR 211: invalid number -0.100000 at line 245 of [JUNC] section:
  160	5973.451563	-0.100000	0.000000	0.000000	0.000000

  
  ERROR 211: invalid number -0.100000 at line 251 of [JUNC] section:
  163	6018.565332	-0.100000	0.000000	0.000000	0.000000

  
  ERROR 211: invalid number -0.100000 at line 253 of [JUNC] section:
  164	6155.143945	-0.100000	0.000000	0.000000	0.000000

  
  ERROR 211: invalid number -0.100000 at line 255 of [JUNC] section:
  165	6185.017480	-0.100000	0.000000	0.000000	0.000000

  
  ERROR 211: invalid number -0.100000 at line 257 of [JUNC] section:
  166	6056.817285	-0.100000	0.000000	0.000000	0.000000

  
  ERROR 211: invalid number -0.100000 at line 321 of [JUNC] section:
  1779	6134.864160	-0.100000	0.000000	0.000000	0.000000

  
  ERROR 211: invalid number -0.100000 at line 335 of [JUNC] section:
  1785	6054.377832	-0.100000	0.000000	0.000000	0.000000

  
  ERROR 211: invalid number -0.100000 at line 339 of [JUNC] section:
  1787	6049.876855	-0.100000	0.000000	0.000000	0.000000

  
  ERROR 211: invalid number -0.100000 at line 371 of [JUNC] section:
  1800	5996.028223	-0.100000	0.000000	0.000000	0.000000

  
  ERROR 211: invalid number -0.100000 at line 379 of [JUNC] section:
  1804	6086.310449	-0.100000	0.000000	0.000000	0.000000

  
  ERROR 211: invalid number -0.100000 at line 385 of [JUNC] section:
  1807	6062.507715	-0.100000	0.000000	0.000000	0.000000

  
  ERROR 211: invalid number -0.100000 at line 387 of [JUNC] section:
  1808	6031.197656	-0.100000	0.000000	0.000000	0.000000

  
  ERROR 211: invalid number -0.100000 at line 393 of [JUNC] section:
  1810	6030.338770	-0.100000	0.000000	0.000000	0.000000

  
  ERROR 211: invalid number -0.100000 at line 413 of [JUNC] section:
  1821	5965.142969	-0.100000	0.000000	0.000000	0.000000

  
  ERROR 211: invalid number -0.100000 at line 415 of [JUNC] section:
  1822	5967.694727	-0.100000	0.000000	0.000000	0.000000

  
  ERROR 211: invalid number -0.100000 at line 429 of [JUNC] section:
  183	5900.486719	-0.100000	0.000000	0.000000	0.000000

  
  ERROR 211: invalid number -0.100000 at line 481 of [JUNC] section:
  1853	5989.340234	-0.100000	0.000000	0.000000	0.000000

  
  ERROR 211: invalid number -0.100000 at line 489 of [JUNC] section:
  1857	5953.878809	-0.100000	0.000000	0.000000	0.000000

  
  ERROR 211: invalid number -0.100000 at line 493 of [JUNC] section:
  1859	5955.305566	-0.100000	0.000000	0.000000	0.000000

  
  ERROR 211: invalid number -0.100000 at line 507 of [JUNC] section:
  1865	5985.278223	-0.100000	0.000000	0.000000	0.000000

  
  ERROR 211: invalid number -0.100000 at line 511 of [JUNC] section:
  1867	5968.380762	-0.100000	0.000000	0.000000	0.000000

  
  ERROR 211: invalid number -0.100000 at line 517 of [JUNC] section:
  1870	5979.336816	-0.100000	0.000000	0.000000	0.000000

  
  ERROR 211: invalid number -0.100000 at line 523 of [JUNC] section:
  1873	5948.224512	-0.100000	0.000000	0.000000	0.000000

  
  ERROR 211: invalid number -0.100000 at line 525 of [JUNC] section:
  1874	5945.813379	-0.100000	0.000000	0.000000	0.000000

  
  ERROR 211: invalid number -0.100000 at line 535 of [JUNC] section:
  1879	5949.878809	-0.100000	0.000000	0.000000	0.000000

  
  ERROR 211: invalid number -0.100000 at line 537 of [JUNC] section:
  1880	5947.081934	-0.100000	0.000000	0.000000	0.000000

  
  ERROR 211: invalid number -0.100000 at line 549 of [JUNC] section:
  1886	5982.435449	-0.100000	0.000000	0.000000	0.000000

  
  ERROR 211: invalid number -0.100000 at line 555 of [JUNC] section:
  1889	5947.324121	-0.100000	0.000000	0.000000	0.000000

  
  ERROR 211: invalid number -0.100000 at line 569 of [JUNC] section:
  1896	5950.444727	-0.100000	0.000000	0.000000	0.000000

  
  ERROR 211: invalid number -0.100000 at line 573 of [JUNC] section:
  1898	5951.507227	-0.100000	0.000000	0.000000	0.000000

  
  ERROR 211: invalid number -0.100000 at line 581 of [JUNC] section:
  1900	5950.841211	-0.100000	0.000000	0.000000	0.000000

  
  ERROR 211: invalid number -0.100000 at line 585 of [JUNC] section:
  1902	5954.980371	-0.100000	0.000000	0.000000	0.000000

  
  ERROR 211: invalid number -0.100000 at line 589 of [JUNC] section:
  1904	5967.802148	-0.100000	0.000000	0.000000	0.000000

  
  ERROR 211: invalid number -0.100000 at line 591 of [JUNC] section:
  1905	5967.353418	-0.100000	0.000000	0.000000	0.000000

  
  ERROR 211: invalid number -0.100000 at line 593 of [JUNC] section:
  1906	5992.128320	-0.100000	0.000000	0.000000	0.000000

  
  ERROR 211: invalid number -0.100000 at line 653 of [JUNC] section:
  1936	6048.424707	-0.100000	0.000000	0.000000	0.000000

  
  ERROR 211: invalid number -0.100000 at line 655 of [JUNC] section:
  1937	6050.324121	-0.100000	0.000000	0.000000	0.000000

  
  ERROR 211: invalid number -0.100000 at line 661 of [JUNC] section:
  194	5933.623926	-0.100000	0.000000	0.000000	0.000000

  
  ERROR 211: invalid number -0.100000 at line 663 of [JUNC] section:
  1940	6042.978418	-0.100000	0.000000	0.000000	0.000000

  
  ERROR 211: invalid number -0.100000 at line 667 of [JUNC] section:
  1942	6114.066797	-0.100000	0.000000	0.000000	0.000000

  
  ERROR 211: invalid number -0.100000 at line 669 of [JUNC] section:
  1943	6139.399316	-0.100000	0.000000	0.000000	0.000000

  
  ERROR 211: invalid number -0.100000 at line 671 of [JUNC] section:
  1944	6131.548730	-0.100000	0.000000	0.000000	0.000000

  
  ERROR 211: invalid number -0.100000 at line 677 of [JUNC] section:
  1947	5945.352441	-0.100000	0.000000	0.000000	0.000000

  
  ERROR 211: invalid number -0.100000 at line 679 of [JUNC] section:
  1948	5948.013086	-0.100000	0.000000	0.000000	0.000000

  
  ERROR 211: invalid number -0.100000 at line 695 of [JUNC] section:
  1956	5965.235254	-0.100000	0.000000	0.000000	0.000000

  
  ERROR 211: invalid number -0.100000 at line 697 of [JUNC] section:
  1957	5948.098535	-0.100000	0.000000	0.000000	0.000000

  
  ERROR 211: invalid number -0.100000 at line 727 of [JUNC] section:
  1971	5952.025293	-0.100000	0.000000	0.000000	0.000000

  
  ERROR 211: invalid number -0.100000 at line 729 of [JUNC] section:
  1975	5944.948633	-0.100000	0.000000	0.000000	0.000000

  
  ERROR 211: invalid number -0.100000 at line 759 of [JUNC] section:
  1989	6010.208398	-0.100000	0.000000	0.000000	0.000000

  
  ERROR 211: invalid number -0.100000 at line 787 of [JUNC] section:
  2000	5959.275781	-0.100000	0.000000	0.000000	0.000000

  
  ERROR 211: invalid number -0.100000 at line 807 of [JUNC] section:
  2010	5993.868555	-0.100000	0.000000	0.000000	0.000000

  
  ERROR 211: invalid number -0.100000 at line 811 of [JUNC] section:
  2012	6025.211816	-0.100000	0.000000	0.000000	0.000000

  
  ERROR 211: invalid number -0.100000 at line 865 of [JUNC] section:
  2037	5988.630273	-0.100000	0.000000	0.000000	0.000000

  
  ERROR 211: invalid number -0.100000 at line 867 of [JUNC] section:
  2038	6071.172754	-0.100000	0.000000	0.000000	0.000000

  
  ERROR 211: invalid number -0.100000 at line 887 of [JUNC] section:
  2047	6039.539453	-0.100000	0.000000	0.000000	0.000000

  
  ERROR 211: invalid number -0.100000 at line 891 of [JUNC] section:
  2049	5984.507227	-0.100000	0.000000	0.000000	0.000000

  
  ERROR 211: invalid number -0.100000 at line 895 of [JUNC] section:
  2050	6042.063867	-0.100000	0.000000	0.000000	0.000000

  
  ERROR 211: invalid number -0.100000 at line 897 of [JUNC] section:
  2051	5955.624902	-0.100000	0.000000	0.000000	0.000000

  
  ERROR 211: invalid number -0.100000 at line 921 of [JUNC] section:
  2065	5967.861230	-0.100000	0.000000	0.000000	0.000000

  
  ERROR 211: invalid number -0.100000 at line 935 of [JUNC] section:
  2071	6014.918848	-0.100000	0.000000	0.000000	0.000000

  
  ERROR 211: invalid number -0.100000 at line 949 of [JUNC] section:
  2078	6055.323633	-0.100000	0.000000	0.000000	0.000000

  
  ERROR 211: invalid number -0.100000 at line 955 of [JUNC] section:
  2080	6094.898340	-0.100000	0.000000	0.000000	0.000000

  
  ERROR 211: invalid number -0.100000 at line 957 of [JUNC] section:
  2081	6089.786035	-0.100000	0.000000	0.000000	0.000000

  
  ERROR 211: invalid number -0.100000 at line 965 of [JUNC] section:
  2085	6125.485254	-0.100000	0.000000	0.000000	0.000000

  
  ERROR 211: invalid number -0.100000 at line 967 of [JUNC] section:
  2086	6053.638086	-0.100000	0.000000	0.000000	0.000000

  
  ERROR 211: invalid number -0.100000 at line 969 of [JUNC] section:
  2087	6091.425195	-0.100000	0.000000	0.000000	0.000000

  
  ERROR 211: invalid number -0.100000 at line 971 of [JUNC] section:
  2088	6089.034570	-0.100000	0.000000	0.000000	0.000000

  
  ERROR 211: invalid number -0.100000 at line 973 of [JUNC] section:
  2089	6122.843652	-0.100000	0.000000	0.000000	0.000000

  
  ERROR 211: invalid number -0.100000 at line 975 of [JUNC] section:
  209	5902.992090	-0.100000	0.000000	0.000000	0.000000

  
  ERROR 211: invalid number -0.100000 at line 993 of [JUNC] section:
  2098	6158.167383	-0.100000	0.000000	0.000000	0.000000

  
  ERROR 211: invalid number -0.100000 at line 995 of [JUNC] section:
  2099	6037.299219	-0.100000	0.000000	0.000000	0.000000

  
  ERROR 211: invalid number -0.100000 at line 999 of [JUNC] section:
  210	5902.167871	-0.100000	0.000000	0.000000	0.000000

  
  ERROR 211: invalid number -0.100000 at line 1003 of [JUNC] section:
  2101	6108.367090	-0.100000	0.000000	0.000000	0.000000

  
  ERROR 211: invalid number -0.100000 at line 1005 of [JUNC] section:
  2102	6133.381250	-0.100000	0.000000	0.000000	0.000000

  
  ERROR 211: invalid number -0.100000 at line 1007 of [JUNC] section:
  2103	6156.241602	-0.100000	0.000000	0.000000	0.000000

  
  ERROR 211: invalid number -0.100000 at line 1025 of [JUNC] section:
  2112	5959.962305	-0.100000	0.000000	0.000000	0.000000

  
  ERROR 211: invalid number -0.100000 at line 1037 of [JUNC] section:
  2118	6035.482813	-0.100000	0.000000	0.000000	0.000000

  
  ERROR 211: invalid number -0.100000 at line 1049 of [JUNC] section:
  2123	6024.891992	-0.100000	0.000000	0.000000	0.000000

  
  ERROR 211: invalid number -0.100000 at line 1057 of [JUNC] section:
  2127	6004.377344	-0.100000	0.000000	0.000000	0.000000

  
  ERROR 211: invalid number -0.100000 at line 1063 of [JUNC] section:
  213	5905.714258	-0.100000	0.000000	0.000000	0.000000

  
  ERROR 211: invalid number -0.100000 at line 1069 of [JUNC] section:
  2132	6011.591211	-0.100000	0.000000	0.000000	0.000000

  
  ERROR 211: invalid number -0.100000 at line 1073 of [JUNC] section:
  2134	6002.787500	-0.100000	0.000000	0.000000	0.000000

  
  ERROR 211: invalid number -0.100000 at line 1075 of [JUNC] section:
  2135	6001.662988	-0.100000	0.000000	0.000000	0.000000

  
  ERROR 211: invalid number -0.100000 at line 1079 of [JUNC] section:
  2137	5969.642969	-0.100000	0.000000	0.000000	0.000000

  
  ERROR 211: invalid number -0.100000 at line 1085 of [JUNC] section:
  214	5908.103418	-0.100000	0.000000	0.000000	0.000000

  
  ERROR 211: invalid number -0.100000 at line 1099 of [JUNC] section:
  2146	6029.879297	-0.100000	0.000000	0.000000	0.000000

  
  ERROR 211: invalid number -0.100000 at line 1103 of [JUNC] section:
  2148	6018.889551	-0.100000	0.000000	0.000000	0.000000

  
  ERROR 211: invalid number -0.100000 at line 1111 of [JUNC] section:
  2151	6040.245996	-0.100000	0.000000	0.000000	0.000000

  
  ERROR 211: invalid number -0.100000 at line 1115 of [JUNC] section:
  2153	6056.688379	-0.100000	0.000000	0.000000	0.000000

  
  ERROR 211: invalid number -0.100000 at line 1127 of [JUNC] section:
  2159	6122.944238	-0.100000	0.000000	0.000000	0.000000

  
  ERROR 211: invalid number -0.100000 at line 1133 of [JUNC] section:
  2161	6083.809961	-0.100000	0.000000	0.000000	0.000000

  
  ERROR 211: invalid number -0.100000 at line 1173 of [JUNC] section:
  2180	5964.062891	-0.100000	0.000000	0.000000	0.000000

  
  Maximum error count exceeded.

  Analysis begun on:  Fri Mar  6 13:43:46 2026
  Analysis ended on:  Fri Mar  6 13:43:46 2026
  Total elapsed time: < 1 sec