
  EPA STORM WATER MANAGEMENT MODEL - VERSION 5.2 (Build 5.2.4)
  ------------------------------------------------------------

  WARNING 04: minimum elevation drop used for Conduit HDR_2098
  WARNING 04: minimum elevation drop used for Conduit HDR_2841
  WARNING 04: minimum elevation drop used for Conduit HDR_3659
  WARNING 04: minimum elevation drop used for Conduit HDR_4051
  WARNING 04: minimum elevation drop used for Conduit HDR_4236
  WARNING 04: minimum elevation drop used for Conduit HDR_4474
  WARNING 04: minimum elevation drop used for Conduit HDR_5427
  WARNING 04: minimum elevation drop used for Conduit HDR_6421
  WARNING 04: minimum elevation drop used for Conduit HDR_6926
  WARNING 04: minimum elevation drop used for Conduit HDR_7692
  WARNING 04: minimum elevation drop used for Conduit HDR_7810
  WARNING 04: minimum elevation drop used for Conduit HDR_8590
  WARNING 04: minimum elevation drop used for Conduit HDR_9321
  WARNING 02: maximum depth increased for Node N02W05144
  
  ****************
  Analysis Options
  ****************
  Flow Units ............... GPM
  Process Models:
    Rainfall/Runoff ........ NO
    RDII ................... NO
    Snowmelt ............... NO
    Groundwater ............ NO
    Flow Routing ........... YES
    Ponding Allowed ........ NO
    Water Quality .......... NO
  Flow Routing Method ...... DYNWAVE
  Surcharge Method ......... EXTRAN
  Starting Date ............ 01/01/2002 00:00:00
  Ending Date .............. 01/01/2002 12:00:00
  Antecedent Dry Days ...... 5.0
  Report Time Step ......... 00:05:00
  Routing Time Step ........ 300.00 sec
  Variable Time Step ....... YES
  Maximum Trials ........... 8
  Number of Threads ........ 1
  Head Tolerance ........... 0.005000 ft
  
  
  **************************        Volume        Volume
  Flow Routing Continuity        acre-feet      10^6 gal
  **************************     ---------     ---------
  Dry Weather Inflow .......        22.970         7.485
  Wet Weather Inflow .......         0.000         0.000
  Groundwater Inflow .......         0.000         0.000
  RDII Inflow ..............         0.000         0.000
  External Inflow ..........         0.000         0.000
  External Outflow .........         5.845         1.905
  Flooding Loss ............        10.430         3.399
  Evaporation Loss .........         0.000         0.000
  Exfiltration Loss ........         0.000         0.000
  Initial Stored Volume ....         0.012         0.004
  Final Stored Volume ......         6.449         2.102
  Continuity Error (%) .....         1.123
  
  
  *************************
  Highest Continuity Errors
  *************************
  Node N04W0142 (100.00%)
  Node N05W02172 (100.00%)
  Node N05W02173 (100.00%)
  Node N10E0475 (100.00%)
  Node N10E0560 (100.00%)
  
  
  ***************************
  Time-Step Critical Elements
  ***************************
  Link HDR_6275 (55.66%)
  Link 9998 (44.25%)
  
  
  ********************************
  Highest Flow Instability Indexes
  ********************************
  Link HDR_9340 (139)
  Link HDR_9344 (128)
  Link HDR_291 (113)
  Link HDR_6963 (110)
  Link HDR_9468 (100)
  
  
  *********************************
  Most Frequent Nonconverging Nodes
  *********************************
  Node 10003 (79.63%)
  Node N07E053 (79.63%)
  Node 9999 (66.70%)
  Node N06W0676 (25.89%)
  Node S04W0362 (7.93%)
  
  
  *************************
  Routing Time Step Summary
  *************************
  Minimum Time Step           :     0.27 sec
  Average Time Step           :     0.53 sec
  Maximum Time Step           :    10.30 sec
  % of Time in Steady State   :     0.00
  Average Iterations per Step :     7.50
  % of Steps Not Converging   :    79.63
  Time Step Frequencies       :
     300.000 - 83.462 sec      :     0.00 %
     83.462 - 23.220 sec      :     0.00 %
     23.220 -  6.460 sec      :     0.00 %
      6.460 -  1.797 sec      :     0.03 %
      1.797 -  0.500 sec      :    99.96 %
  
  
  ******************
  Node Depth Summary
  ******************
  
  ---------------------------------------------------------------------------------
                                 Average  Maximum  Maximum  Time of Max    Reported
                                   Depth    Depth      HGL   Occurrence   Max Depth
  Node                 Type         Feet     Feet     Feet  days hr:min        Feet
  ---------------------------------------------------------------------------------
  9999                 JUNCTION    47.00    69.23  5192.25     0  00:31       55.32
  N01E011              JUNCTION     0.35     0.57  5248.28     0  08:42        0.57
  N01E0110             JUNCTION     0.14     0.21  5253.58     0  08:00        0.21
  N01E0111             JUNCTION     0.04     0.06  5253.86     0  08:00        0.06
  N01E0112             JUNCTION     0.05     0.07  5255.10     0  08:00        0.07
  N01E0113             JUNCTION     0.03     0.05  5255.43     0  07:52        0.05
  N01E0114             JUNCTION     0.02     0.03  5256.61     0  07:47        0.03
  N01E0115             JUNCTION     0.03     0.04  5256.36     0  07:20        0.04
  N01E0116             JUNCTION     0.04     0.05  5256.67     0  07:05        0.05
  N01E0117             JUNCTION     0.03     0.04  5253.43     0  08:00        0.04
  N01E0118             JUNCTION     0.06     0.09  5268.07     0  08:00        0.09
  N01E0119             JUNCTION     0.06     0.09  5268.46     0  08:00        0.09
  N01E012              JUNCTION     0.36     0.59  5251.13     0  08:41        0.59
  N01E0120             JUNCTION     0.08     0.12  5268.83     0  08:00        0.12
  N01E0121             JUNCTION     0.08     0.12  5269.84     0  08:00        0.12
  N01E0122             JUNCTION     0.07     0.09  5270.30     0  08:00        0.09
  N01E0123             JUNCTION     0.09     0.12  5270.59     0  08:00        0.12
  N01E0124             JUNCTION     0.03     0.05  5272.21     0  08:00        0.05
  N01E0125             JUNCTION     0.03     0.04  5272.68     0  07:59        0.04
  N01E0126             JUNCTION     0.02     0.03  5273.23     0  07:59        0.03
  N01E0127             JUNCTION     0.03     0.04  5274.01     0  08:00        0.04
  N01E0128             JUNCTION     0.03     0.04  5270.83     0  08:00        0.04
  N01E0129             JUNCTION     2.11     2.63  5266.64     0  07:56        2.63
  N01E013              JUNCTION     0.29     0.48  5257.25     0  08:40        0.48
  N01E0130             JUNCTION     0.01     0.01  5270.81     0  07:49        0.01
  N01E0131             JUNCTION     0.05     0.07  5266.98     0  08:00        0.07
  N01E0132             JUNCTION     0.04     0.06  5265.38     0  08:00        0.06
  N01E0133             JUNCTION     0.08     0.11  5262.39     0  08:00        0.11
  N01E0134             JUNCTION     0.08     0.12  5260.53     0  08:00        0.12
  N01E0135             JUNCTION     0.08     0.12  5259.23     0  08:00        0.12
  N01E0136             JUNCTION     0.08     0.12  5258.62     0  08:00        0.12
  N01E0137             JUNCTION     0.09     0.13  5258.18     0  08:00        0.13
  N01E0138             JUNCTION     0.06     0.08  5257.42     0  08:00        0.08
  N01E0139             JUNCTION     0.13     0.18  5256.42     0  08:00        0.18
  N01E014              JUNCTION     0.33     0.54  5261.16     0  08:39        0.54
  N01E0140             JUNCTION     0.09     0.13  5256.01     0  08:00        0.13
  N01E0141             JUNCTION     0.04     0.05  5275.08     0  08:00        0.05
  N01E0142             JUNCTION     0.09     0.14  5254.74     0  08:00        0.14
  N01E0143             JUNCTION     0.03     0.04  5258.54     0  08:00        0.04
  N01E0144             JUNCTION     0.03     0.04  5256.02     0  07:11        0.04
  N01E0145             JUNCTION     0.10     0.14  5255.54     0  08:00        0.14
  N01E0146             JUNCTION     0.08     0.12  5254.92     0  08:00        0.12
  N01E0147             JUNCTION     0.12     0.17  5255.24     0  08:00        0.17
  N01E0148             JUNCTION     0.03     0.04  5255.31     0  06:12        0.04
  N01E0149             JUNCTION     0.02     0.03  5276.00     0  07:34        0.03
  N01E015              JUNCTION     0.35     0.57  5263.88     0  08:38        0.57
  N01E0150             JUNCTION     0.04     0.06  5274.39     0  08:00        0.06
  N01E0151             JUNCTION     0.04     0.05  5273.36     0  08:00        0.05
  N01E0152             JUNCTION     0.02     0.03  5273.63     0  07:54        0.03
  N01E0153             JUNCTION     0.05     0.07  5273.00     0  08:00        0.07
  N01E0154             JUNCTION     0.06     0.08  5272.61     0  08:00        0.08
  N01E0155             JUNCTION     0.04     0.05  5272.76     0  08:00        0.05
  N01E0156             JUNCTION     0.03     0.04  5273.81     0  08:00        0.04
  N01E0157             JUNCTION     0.03     0.04  5274.41     0  08:00        0.04
  N01E0158             JUNCTION     0.07     0.10  5272.21     0  08:00        0.10
  N01E0159             JUNCTION     0.01     0.02  5268.92     0  07:54        0.02
  N01E016              JUNCTION     0.34     0.55  5268.48     0  08:38        0.55
  N01E0160             JUNCTION     0.09     0.13  5268.21     0  08:00        0.13
  N01E0161             JUNCTION     0.02     0.02  5274.80     0  08:00        0.02
  N01E0162             JUNCTION     0.05     0.07  5273.97     0  08:00        0.07
  N01E0163             JUNCTION     0.02     0.03  5265.13     0  07:47        0.03
  N01E0164             JUNCTION     0.02     0.03  5265.73     0  07:47        0.03
  N01E0165             JUNCTION     0.03     0.05  5270.28     0  08:00        0.05
  N01E0166             JUNCTION     0.04     0.06  5271.03     0  08:00        0.06
  N01E0167             JUNCTION     0.03     0.04  5271.41     0  08:00        0.04
  N01E0168             JUNCTION     0.03     0.05  5272.58     0  08:00        0.05
  N01E0169             JUNCTION     0.04     0.06  5266.57     0  08:00        0.06
  N01E017              JUNCTION     0.04     0.06  5266.93     0  08:00        0.06
  N01E0170             JUNCTION     0.03     0.03  5267.44     0  08:00        0.03
  N01E0171             JUNCTION     0.05     0.07  5262.84     0  08:00        0.07
  N01E0172             JUNCTION     0.03     0.04  5263.55     0  08:00        0.04
  N01E0173             JUNCTION     0.06     0.09  5261.17     0  08:00        0.09
  N01E0174             JUNCTION     0.03     0.04  5262.16     0  08:00        0.04
  N01E0175             JUNCTION     0.04     0.06  5259.10     0  08:00        0.06
  N01E0176             JUNCTION     0.05     0.07  5259.48     0  08:00        0.07
  N01E0177             JUNCTION     0.03     0.05  5259.83     0  08:00        0.05
  N01E0178             JUNCTION     0.02     0.03  5262.00     0  08:00        0.03
  N01E0179             JUNCTION     0.03     0.05  5267.43     0  07:46        0.05
  N01E018              JUNCTION     0.63     1.01  5266.68     0  07:56        0.99
  N01E019              JUNCTION     0.10     0.15  5252.95     0  08:00        0.15
  N01E021              JUNCTION     0.28     0.41  5251.00     0  08:01        0.41
  N01E0210             JUNCTION     0.11     0.17  5271.41     0  08:05        0.17
  N01E0211             JUNCTION     0.01     0.01  5277.62     0  07:46        0.01
  N01E0212             JUNCTION     0.05     0.06  5278.59     0  07:31        0.06
  N01E0213             JUNCTION     0.10     0.14  5262.67     0  08:00        0.14
  N01E0214             JUNCTION     0.09     0.13  5267.45     0  08:00        0.13
  N01E0215             JUNCTION     0.09     0.14  5270.58     0  08:00        0.14
  N01E0216             JUNCTION     0.06     0.08  5274.89     0  08:00        0.08
  N01E0217             JUNCTION     0.07     0.10  5279.95     0  08:00        0.10
  N01E0218             JUNCTION     0.06     0.09  5286.09     0  08:00        0.09
  N01E0219             JUNCTION     0.06     0.09  5292.39     0  08:00        0.09
  N01E022              JUNCTION     0.12     0.18  5257.82     0  08:00        0.18
  N01E0220             JUNCTION     0.05     0.07  5277.29     0  07:57        0.07
  N01E0221             JUNCTION     0.16     0.24  5250.42     0  08:03        0.24
  N01E0222             JUNCTION     0.12     0.18  5273.88     0  08:02        0.18
  N01E0223             JUNCTION     0.10     0.15  5272.95     0  08:04        0.15
  N01E023              JUNCTION     0.10     0.15  5258.45     0  08:10        0.15
  N01E024              JUNCTION     0.10     0.15  5264.38     0  08:10        0.15
  N01E025              JUNCTION     0.14     0.22  5265.94     0  08:09        0.22
  N01E026              JUNCTION     0.10     0.15  5269.84     0  08:06        0.15
  N01E027              JUNCTION     0.03     0.05  5279.41     0  08:00        0.05
  N01E028              JUNCTION     0.14     0.21  5270.53     0  08:08        0.21
  N01E029              JUNCTION     0.02     0.02  5273.04     0  08:00        0.02
  N01E031              JUNCTION     0.10     0.15  5276.16     0  08:00        0.15
  N01E0310             JUNCTION     0.02     0.02  5302.38     0  08:00        0.02
  N01E0311             JUNCTION     0.01     0.01  5315.90     0  08:00        0.01
  N01E0312             JUNCTION     0.02     0.02  5305.36     0  08:00        0.02
  N01E0313             JUNCTION     0.02     0.03  5304.37     0  08:00        0.03
  N01E0314             JUNCTION     0.12     0.13  5302.81     0  08:00        0.13
  N01E0315             JUNCTION     0.04     0.06  5297.97     0  08:00        0.06
  N01E0316             JUNCTION     0.06     0.08  5296.73     0  08:00        0.08
  N01E0317             JUNCTION     0.05     0.07  5304.32     0  08:00        0.07
  N01E0318             JUNCTION     0.05     0.07  5311.21     0  08:00        0.07
  N01E0319             JUNCTION     0.02     0.03  5314.40     0  08:00        0.03
  N01E032              JUNCTION     0.14     0.21  5274.62     0  08:00        0.21
  N01E0320             JUNCTION     0.01     0.02  5318.32     0  08:00        0.02
  N01E0321             JUNCTION     0.05     0.07  5319.89     0  08:00        0.07
  N01E0322             JUNCTION     0.08     0.11  5320.81     0  08:00        0.11
  N01E0323             JUNCTION     0.06     0.08  5321.99     0  08:00        0.08
  N01E0324             JUNCTION     0.01     0.01  5331.13     0  07:27        0.01
  N01E0325             JUNCTION     0.03     0.04  5321.07     0  08:00        0.04
  N01E0326             JUNCTION     0.03     0.04  5323.18     0  08:00        0.04
  N01E0327             JUNCTION     0.02     0.02  5333.23     0  07:55        0.02
  N01E0328             JUNCTION     0.01     0.02  5353.88     0  08:00        0.02
  N01E0329             JUNCTION     0.01     0.01  5346.13     0  07:34        0.01
  N01E0330             JUNCTION     0.01     0.01  5343.94     0  07:32        0.01
  N01E0331             JUNCTION     0.02     0.02  5328.00     0  07:45        0.02
  N01E0332             JUNCTION     0.02     0.03  5325.80     0  08:00        0.03
  N01E0333             JUNCTION     0.01     0.02  5329.46     0  08:00        0.02
  N01E0334             JUNCTION     0.01     0.02  5331.05     0  08:00        0.02
  N01E0335             JUNCTION     0.01     0.02  5334.86     0  08:00        0.02
  N01E0336             JUNCTION     0.01     0.02  5333.25     0  08:00        0.02
  N01E0337             JUNCTION     0.02     0.03  5322.09     0  08:00        0.03
  N01E0338             JUNCTION     0.02     0.03  5316.40     0  08:00        0.03
  N01E0339             JUNCTION     0.05     0.08  5309.23     0  08:00        0.08
  N01E0340             JUNCTION     0.02     0.03  5326.46     0  08:00        0.03
  N01E0341             JUNCTION     0.02     0.02  5384.34     0  08:00        0.02
  N01E0342             JUNCTION     0.01     0.02  5383.83     0  08:00        0.02
  N01E0343             JUNCTION     0.02     0.03  5360.48     0  08:00        0.03
  N01E0344             JUNCTION     0.02     0.03  5357.84     0  08:00        0.03
  N01E0345             JUNCTION     0.02     0.03  5362.61     0  08:00        0.03
  N01E0346             JUNCTION     0.01     0.02  5367.59     0  08:00        0.02
  N01E0347             JUNCTION     0.00     0.00  5393.48     0  00:00        0.00
  N01E0348             JUNCTION     0.00     0.00  5391.98     0  00:00        0.00
  N01E0349             JUNCTION     0.00     0.00  5389.67     0  00:00        0.00
  N01E035              JUNCTION     0.03     0.04  5281.70     0  08:00        0.04
  N01E0350             JUNCTION     0.00     0.00  5396.14     0  00:00        0.00
  N01E0351             JUNCTION     0.00     0.00  5388.02     0  00:00        0.00
  N01E0352             JUNCTION     0.00     0.00  5376.38     0  00:00        0.00
  N01E0353             JUNCTION     0.00     0.00  5355.43     0  00:00        0.00
  N01E0354             JUNCTION     0.00     0.00  5322.60     0  00:00        0.00
  N01E0355             JUNCTION     0.00     0.00  5320.28     0  00:00        0.00
  N01E0356             JUNCTION     0.00     0.00  5325.29     0  00:00        0.00
  N01E0357             JUNCTION     0.00     0.00  5317.66     0  00:00        0.00
  N01E0358             JUNCTION     0.00     0.00  5317.29     0  00:00        0.00
  N01E0359             JUNCTION     0.02     0.03  5385.90     0  08:00        0.03
  N01E036              JUNCTION     0.03     0.04  5285.31     0  08:00        0.04
  N01E037              JUNCTION     0.03     0.04  5288.17     0  08:00        0.04
  N01E038              JUNCTION     0.03     0.04  5291.58     0  08:00        0.04
  N01E039              JUNCTION     0.03     0.04  5293.11     0  07:28        0.04
  N01E041              JUNCTION     0.00     0.00  5358.18     0  00:00        0.00
  N01E042              JUNCTION     0.00     0.00  5348.19     0  00:00        0.00
  N01E043              JUNCTION     0.00     0.00  5330.39     0  00:00        0.00
  N01E044              JUNCTION     0.00     0.00  5327.33     0  00:00        0.00
  N01E045              JUNCTION     0.00     0.00  5314.46     0  00:00        0.00
  N01E046              JUNCTION     0.61     3.71  5312.64     0  10:13        3.61
  N01E047              JUNCTION     1.22     5.31  5312.58     0  10:13        5.26
  N01E048              JUNCTION     1.53     5.62  5312.51     0  10:13        5.62
  N01W011              JUNCTION     0.11     0.16  5258.08     0  08:18        0.16
  N01W0110             JUNCTION     0.02     0.03  5271.54     0  08:00        0.03
  N01W0111             JUNCTION     0.02     0.03  5272.25     0  08:00        0.03
  N01W0112             JUNCTION     0.11     0.16  5259.34     0  08:12        0.16
  N01W0113             JUNCTION     0.11     0.16  5257.93     0  08:15        0.16
  N01W0114             JUNCTION     0.11     0.16  5256.43     0  08:17        0.16
  N01W0115             JUNCTION     0.19     0.28  5254.70     0  08:00        0.28
  N01W0116             JUNCTION     0.08     0.11  5259.88     0  08:00        0.11
  N01W0117             JUNCTION     0.05     0.08  5262.72     0  08:00        0.08
  N01W0118             JUNCTION     0.05     0.08  5264.84     0  08:00        0.08
  N01W0119             JUNCTION     0.05     0.08  5266.88     0  08:00        0.08
  N01W012              JUNCTION     0.13     0.20  5258.83     0  08:17        0.20
  N01W0120             JUNCTION     0.05     0.07  5269.81     0  08:00        0.07
  N01W0121             JUNCTION     0.04     0.06  5271.59     0  08:00        0.06
  N01W0122             JUNCTION     0.04     0.05  5276.63     0  08:00        0.05
  N01W0123             JUNCTION     0.03     0.04  5277.66     0  07:53        0.04
  N01W0124             JUNCTION     0.03     0.04  5278.65     0  07:56        0.04
  N01W0125             JUNCTION     0.02     0.03  5279.58     0  07:50        0.03
  N01W0126             JUNCTION     0.01     0.02  5281.37     0  07:25        0.02
  N01W0127             JUNCTION     0.08     0.12  5258.79     0  08:00        0.12
  N01W0128             JUNCTION     0.08     0.11  5257.50     0  08:00        0.11
  N01W0129             JUNCTION     0.22     0.32  5255.31     0  08:00        0.32
  N01W013              JUNCTION     0.04     0.09  5259.77     0  08:44        0.09
  N01W0130             JUNCTION     0.07     0.10  5256.38     0  08:00        0.10
  N01W0131             JUNCTION     0.08     0.12  5259.19     0  08:00        0.12
  N01W0132             JUNCTION     0.02     0.03  5266.10     0  07:49        0.03
  N01W0133             JUNCTION     0.03     0.04  5263.11     0  08:00        0.04
  N01W0134             JUNCTION     0.05     0.07  5261.37     0  08:00        0.07
  N01W0135             JUNCTION     0.38     0.44  5260.67     0  08:00        0.44
  N01W0136             JUNCTION     0.05     0.07  5263.27     0  08:00        0.07
  N01W0137             JUNCTION     0.04     0.06  5266.72     0  08:00        0.06
  N01W0138             JUNCTION     0.03     0.05  5270.20     0  08:00        0.05
  N01W0139             JUNCTION     0.06     0.08  5261.43     0  08:00        0.08
  N01W014              JUNCTION     1.15     1.56  5261.54     0  08:40        1.56
  N01W0140             JUNCTION     0.13     0.14  5266.82     0  08:00        0.14
  N01W0141             JUNCTION     0.02     0.03  5270.48     0  08:00        0.03
  N01W0142             JUNCTION     0.19     0.27  5253.78     0  08:00        0.27
  N01W0143             JUNCTION     0.06     0.09  5256.56     0  08:00        0.09
  N01W0144             JUNCTION     0.05     0.08  5260.22     0  08:00        0.08
  N01W0145             JUNCTION     0.03     0.04  5266.55     0  08:00        0.04
  N01W0146             JUNCTION     0.04     0.06  5265.35     0  08:00        0.06
  N01W0147             JUNCTION     0.06     0.08  5267.68     0  08:00        0.08
  N01W0148             JUNCTION     0.04     0.05  5269.81     0  08:00        0.05
  N01W0149             JUNCTION     0.04     0.05  5272.05     0  08:00        0.05
  N01W015              JUNCTION     0.53     0.90  5261.54     0  08:14        0.90
  N01W0150             JUNCTION     0.02     0.03  5274.52     0  08:00        0.03
  N01W0151             JUNCTION     0.27     0.40  5252.82     0  08:10        0.40
  N01W0152             JUNCTION     0.24     0.37  5257.50     0  08:11        0.37
  N01W0153             JUNCTION     0.25     0.38  5261.56     0  08:10        0.38
  N01W0154             JUNCTION     0.24     0.36  5265.80     0  08:09        0.36
  N01W0155             JUNCTION     0.28     0.41  5267.30     0  08:09        0.41
  N01W0156             JUNCTION     0.25     0.36  5270.49     0  08:08        0.36
  N01W0157             JUNCTION     0.33     0.50  5271.88     0  08:07        0.50
  N01W0158             JUNCTION     0.10     0.15  5260.79     0  08:09        0.15
  N01W0159             JUNCTION     0.02     0.03  5273.63     0  07:57        0.03
  N01W016              JUNCTION     0.02     0.03  5263.48     0  07:55        0.03
  N01W0160             JUNCTION     0.26     0.38  5265.12     0  08:08        0.38
  N01W0161             JUNCTION     0.08     0.11  5263.70     0  08:07        0.11
  N01W0162             JUNCTION     0.08     0.12  5265.37     0  08:04        0.12
  N01W0163             JUNCTION     0.09     0.14  5266.17     0  08:04        0.14
  N01W0164             JUNCTION     0.08     0.11  5267.36     0  08:01        0.11
  N01W0165             JUNCTION     0.08     0.12  5268.14     0  08:00        0.12
  N01W0166             JUNCTION     0.06     0.09  5270.66     0  08:00        0.09
  N01W0167             JUNCTION     1.85     3.16  5272.96     0  08:00        3.16
  N01W0168             JUNCTION     0.04     0.07  5271.58     0  08:00        0.07
  N01W0169             JUNCTION     0.06     0.09  5271.36     0  08:00        0.09
  N01W017              JUNCTION     0.34     0.64  5261.54     0  08:41        0.64
  N01W0170             JUNCTION     0.04     0.06  5273.95     0  07:15        0.06
  N01W0171             JUNCTION     0.03     0.04  5277.25     0  07:56        0.04
  N01W0172             JUNCTION     0.33     0.50  5251.04     0  08:10        0.50
  N01W0173             JUNCTION     0.28     0.43  5262.06     0  08:08        0.43
  N01W0174             JUNCTION     0.82     1.93  5272.99     0  07:59        1.91
  N01W018              JUNCTION     0.03     0.04  5264.51     0  08:00        0.04
  N01W019              JUNCTION     0.02     0.03  5270.46     0  08:00        0.03
  N01W021              JUNCTION     0.26     0.38  5257.67     0  08:01        0.38
  N01W0210             JUNCTION     0.08     0.11  5289.18     0  08:00        0.11
  N01W02100            JUNCTION     0.03     0.04  5292.44     0  07:57        0.04
  N01W02101            JUNCTION     0.02     0.03  5282.94     0  07:25        0.03
  N01W02102            JUNCTION     0.02     0.03  5281.74     0  07:25        0.03
  N01W02103            JUNCTION     0.02     0.03  5278.70     0  07:27        0.03
  N01W02104            JUNCTION     0.02     0.03  5269.05     0  08:00        0.03
  N01W0211             JUNCTION     0.05     0.08  5291.23     0  08:00        0.08
  N01W0212             JUNCTION     0.03     0.05  5295.09     0  08:00        0.05
  N01W0213             JUNCTION     0.02     0.03  5297.03     0  08:00        0.03
  N01W0214             JUNCTION     0.11     0.15  5278.72     0  08:00        0.15
  N01W0215             JUNCTION     0.03     0.04  5281.75     0  08:00        0.04
  N01W0216             JUNCTION     0.08     0.11  5279.74     0  08:00        0.11
  N01W0217             JUNCTION     0.08     0.11  5281.02     0  08:00        0.11
  N01W0218             JUNCTION     0.03     0.04  5287.25     0  08:00        0.04
  N01W0219             JUNCTION     0.04     0.06  5284.81     0  08:00        0.06
  N01W022              JUNCTION     0.26     0.38  5258.65     0  08:00        0.38
  N01W0220             JUNCTION     0.07     0.11  5282.45     0  08:00        0.11
  N01W0221             JUNCTION     0.02     0.03  5290.06     0  07:51        0.03
  N01W0222             JUNCTION     0.03     0.04  5287.68     0  08:00        0.04
  N01W0223             JUNCTION     0.05     0.07  5285.14     0  08:00        0.07
  N01W0224             JUNCTION     0.03     0.04  5289.16     0  08:00        0.04
  N01W0225             JUNCTION     0.02     0.03  5291.64     0  07:45        0.03
  N01W0226             JUNCTION     0.15     0.22  5273.65     0  08:00        0.22
  N01W0227             JUNCTION     0.16     0.24  5275.61     0  08:00        0.24
  N01W0228             JUNCTION     0.09     0.13  5278.56     0  08:00        0.13
  N01W0229             JUNCTION     0.08     0.12  5281.93     0  08:00        0.12
  N01W023              JUNCTION     0.18     0.26  5267.96     0  08:00        0.26
  N01W0230             JUNCTION     0.09     0.13  5282.76     0  08:00        0.13
  N01W0231             JUNCTION     0.05     0.06  5294.77     0  08:00        0.06
  N01W0232             JUNCTION     0.06     0.09  5293.29     0  08:00        0.09
  N01W0233             JUNCTION     0.07     0.10  5291.55     0  08:00        0.10
  N01W0234             JUNCTION     0.08     0.11  5288.83     0  08:00        0.11
  N01W0235             JUNCTION     0.02     0.03  5291.16     0  07:52        0.03
  N01W0236             JUNCTION     0.07     0.11  5287.80     0  08:00        0.11
  N01W0237             JUNCTION     0.07     0.10  5285.06     0  08:00        0.10
  N01W0238             JUNCTION     0.01     0.02  5294.31     0  07:27        0.02
  N01W0239             JUNCTION     0.11     0.16  5276.86     0  08:00        0.16
  N01W024              JUNCTION     0.18     0.26  5269.47     0  08:00        0.26
  N01W0240             JUNCTION     0.13     0.19  5277.67     0  08:00        0.19
  N01W0241             JUNCTION     0.07     0.10  5278.95     0  08:00        0.10
  N01W0242             JUNCTION     0.06     0.09  5280.82     0  08:00        0.09
  N01W0243             JUNCTION     0.05     0.07  5282.74     0  08:00        0.07
  N01W0244             JUNCTION     0.05     0.07  5283.64     0  08:00        0.07
  N01W0245             JUNCTION     0.03     0.04  5286.24     0  08:00        0.04
  N01W0246             JUNCTION     0.08     0.12  5278.95     0  08:00        0.12
  N01W0247             JUNCTION     0.07     0.10  5280.94     0  08:00        0.10
  N01W0248             JUNCTION     0.09     0.12  5281.68     0  08:00        0.12
  N01W0249             JUNCTION     0.05     0.07  5286.31     0  07:48        0.07
  N01W025              JUNCTION     0.25     0.36  5270.45     0  08:00        0.36
  N01W0250             JUNCTION     0.12     0.18  5263.13     0  08:00        0.18
  N01W0251             JUNCTION     0.11     0.17  5264.04     0  08:00        0.17
  N01W0252             JUNCTION     0.13     0.18  5264.69     0  08:00        0.18
  N01W0253             JUNCTION     0.11     0.16  5266.22     0  08:00        0.16
  N01W0254             JUNCTION     0.05     0.07  5269.16     0  08:00        0.07
  N01W0255             JUNCTION     0.02     0.03  5270.24     0  07:47        0.03
  N01W0256             JUNCTION     0.05     0.07  5271.42     0  08:00        0.07
  N01W0257             JUNCTION     0.03     0.05  5273.23     0  08:00        0.05
  N01W0258             JUNCTION     0.03     0.04  5274.69     0  08:00        0.04
  N01W0259             JUNCTION     0.07     0.11  5269.39     0  08:00        0.11
  N01W026              JUNCTION     0.27     0.40  5270.79     0  08:00        0.40
  N01W0260             JUNCTION     0.08     0.12  5271.35     0  08:00        0.12
  N01W0261             JUNCTION     0.05     0.08  5276.21     0  08:00        0.08
  N01W0262             JUNCTION     0.05     0.07  5277.62     0  07:38        0.07
  N01W0263             JUNCTION     0.04     0.06  5279.73     0  07:45        0.06
  N01W0264             JUNCTION     0.03     0.04  5281.00     0  08:00        0.04
  N01W0265             JUNCTION     0.13     0.19  5262.49     0  08:00        0.19
  N01W0266             JUNCTION     0.12     0.18  5261.80     0  08:00        0.18
  N01W0267             JUNCTION     0.14     0.20  5261.19     0  08:00        0.20
  N01W0268             JUNCTION     0.15     0.22  5260.67     0  08:00        0.22
  N01W0269             JUNCTION     0.13     0.19  5259.67     0  08:00        0.19
  N01W027              JUNCTION     0.10     0.14  5277.12     0  08:00        0.14
  N01W0270             JUNCTION     0.05     0.07  5262.61     0  08:00        0.07
  N01W0272             JUNCTION     0.02     0.03  5263.12     0  08:00        0.03
  N01W0273             JUNCTION     0.03     0.04  5262.48     0  08:00        0.04
  N01W0274             JUNCTION     0.04     0.06  5265.84     0  08:00        0.06
  N01W0275             JUNCTION     0.04     0.05  5268.42     0  08:00        0.05
  N01W0276             JUNCTION     0.04     0.05  5281.58     0  07:57        0.05
  N01W0277             JUNCTION     0.04     0.06  5280.26     0  08:00        0.06
  N01W0278             JUNCTION     0.04     0.05  5277.23     0  08:00        0.05
  N01W0279             JUNCTION     0.23     0.34  5270.13     0  08:00        0.34
  N01W028              JUNCTION     0.09     0.13  5280.16     0  08:00        0.13
  N01W0280             JUNCTION     0.02     0.03  5275.02     0  07:52        0.03
  N01W0281             JUNCTION     0.03     0.04  5275.65     0  07:50        0.04
  N01W0282             JUNCTION     0.05     0.08  5284.23     0  08:00        0.08
  N01W0283             JUNCTION     0.03     0.04  5293.27     0  08:00        0.04
  N01W0284             JUNCTION     0.03     0.04  5274.30     0  07:48        0.04
  N01W0285             JUNCTION     0.02     0.03  5278.72     0  07:36        0.03
  N01W0286             JUNCTION     0.02     0.03  5283.64     0  07:15        0.03
  N01W0287             JUNCTION     0.02     0.03  5283.12     0  07:51        0.03
  N01W0288             JUNCTION     0.34     0.49  5257.24     0  08:01        0.49
  N01W0289             JUNCTION     0.03     0.04  5261.10     0  07:53        0.04
  N01W029              JUNCTION     0.07     0.10  5286.96     0  08:00        0.10
  N01W0290             JUNCTION     0.10     0.14  5266.95     0  08:00        0.14
  N01W0291             JUNCTION     0.03     0.05  5272.09     0  08:00        0.05
  N01W0292             JUNCTION     0.04     0.06  5273.91     0  08:00        0.06
  N01W0293             JUNCTION     0.04     0.06  5274.50     0  07:36        0.06
  N01W0294             JUNCTION     0.20     0.29  5268.69     0  08:00        0.29
  N01W0295             JUNCTION     0.26     0.40  5270.89     0  08:00        0.40
  N01W0296             JUNCTION     0.22     0.32  5272.63     0  08:00        0.32
  N01W0297             JUNCTION     0.12     0.18  5272.29     0  08:00        0.18
  N01W0298             JUNCTION     0.12     0.18  5271.50     0  08:00        0.18
  N01W0299             JUNCTION     0.03     0.04  5290.69     0  08:00        0.04
  N01W031              JUNCTION     0.33     0.48  5284.76     0  08:17        0.48
  N01W0310             JUNCTION     0.39     0.58  5301.61     0  08:12        0.58
  N01W03100            JUNCTION     0.23     0.33  5257.03     0  08:03        0.33
  N01W03101            JUNCTION     0.05     0.07  5275.35     0  08:00        0.07
  N01W03102            JUNCTION     0.14     0.20  5269.22     0  08:00        0.20
  N01W03103            JUNCTION     0.05     0.06  5278.21     0  08:00        0.06
  N01W03104            JUNCTION     0.03     0.04  5280.99     0  07:56        0.04
  N01W03105            JUNCTION     0.02     0.03  5286.27     0  07:59        0.03
  N01W03108            JUNCTION     0.09     0.12  5268.08     0  08:00        0.12
  N01W03109            JUNCTION     0.09     0.13  5264.14     0  08:00        0.13
  N01W0311             JUNCTION     0.18     0.26  5309.55     0  08:11        0.26
  N01W03110            JUNCTION     0.06     0.08  5260.22     0  08:00        0.08
  N01W03111            JUNCTION     0.07     0.10  5262.05     0  08:00        0.10
  N01W03112            JUNCTION     0.07     0.09  5263.99     0  08:00        0.09
  N01W03113            JUNCTION     0.03     0.04  5266.97     0  07:42        0.04
  N01W03114            JUNCTION     0.08     0.11  5266.51     0  08:00        0.11
  N01W03115            JUNCTION     0.07     0.11  5267.22     0  08:00        0.11
  N01W03116            JUNCTION     0.06     0.09  5268.03     0  08:00        0.09
  N01W03117            JUNCTION     0.02     0.03  5267.49     0  08:00        0.03
  N01W03118            JUNCTION     0.02     0.02  5268.25     0  08:00        0.02
  N01W03119            JUNCTION     0.02     0.02  5269.26     0  07:45        0.02
  N01W0312             JUNCTION     0.21     0.31  5322.85     0  08:11        0.31
  N01W03120            JUNCTION     0.02     0.02  5268.90     0  07:37        0.02
  N01W03121            JUNCTION     0.02     0.03  5268.68     0  08:00        0.03
  N01W03122            JUNCTION     0.03     0.04  5267.63     0  07:48        0.04
  N01W03123            JUNCTION     0.02     0.02  5268.56     0  07:51        0.02
  N01W03124            JUNCTION     0.02     0.03  5268.52     0  07:28        0.03
  N01W03125            JUNCTION     0.02     0.02  5270.36     0  07:24        0.02
  N01W03126            JUNCTION     0.07     0.11  5268.80     0  07:57        0.11
  N01W03127            JUNCTION     0.11     0.15  5269.10     0  07:57        0.15
  N01W03128            JUNCTION     0.06     0.09  5269.21     0  07:55        0.09
  N01W03129            JUNCTION     0.03     0.04  5269.98     0  07:55        0.04
  N01W0313             JUNCTION     0.03     0.04  5291.32     0  08:00        0.04
  N01W03130            JUNCTION     0.05     0.07  5269.81     0  07:40        0.07
  N01W03131            JUNCTION     0.38     0.55  5255.91     0  08:03        0.55
  N01W03132            JUNCTION     0.02     0.02  5275.58     0  07:24        0.02
  N01W03133            JUNCTION     0.02     0.02  5274.75     0  07:51        0.02
  N01W03134            JUNCTION     0.01     0.02  5292.19     0  07:20        0.02
  N01W03135            JUNCTION     0.02     0.02  5286.57     0  07:53        0.02
  N01W03136            JUNCTION     0.22     0.45  5256.15     0  08:02        0.45
  N01W03137            JUNCTION     3.31     3.61  5293.71     0  08:10        3.60
  N01W03138            JUNCTION     0.00     0.00  5269.79     0  00:00        0.00
  N01W03139            JUNCTION     0.00     0.00  5270.95     0  00:00        0.00
  N01W0314             JUNCTION     0.03     0.04  5285.05     0  08:00        0.04
  N01W0315             JUNCTION     0.04     0.06  5280.04     0  08:00        0.06
  N01W0316             JUNCTION     0.05     0.06  5278.01     0  08:00        0.06
  N01W0317             JUNCTION     0.02     0.02  5277.16     0  08:00        0.02
  N01W0318             JUNCTION     0.04     0.06  5275.93     0  08:00        0.06
  N01W0319             JUNCTION     0.11     0.16  5277.21     0  08:00        0.16
  N01W032              JUNCTION     0.32     0.47  5288.18     0  08:17        0.47
  N01W0320             JUNCTION     0.14     0.21  5279.32     0  08:00        0.21
  N01W0321             JUNCTION     0.01     0.02  5292.40     0  07:54        0.02
  N01W0322             JUNCTION     0.03     0.04  5288.04     0  08:00        0.04
  N01W0323             JUNCTION     0.06     0.08  5284.35     0  08:00        0.08
  N01W0324             JUNCTION     0.04     0.05  5285.84     0  08:00        0.05
  N01W0325             JUNCTION     0.03     0.05  5295.29     0  08:00        0.05
  N01W0326             JUNCTION     0.02     0.03  5291.07     0  08:00        0.03
  N01W0327             JUNCTION     0.03     0.04  5289.64     0  08:00        0.04
  N01W0328             JUNCTION     0.04     0.05  5288.84     0  08:00        0.05
  N01W0329             JUNCTION     0.02     0.03  5291.20     0  07:47        0.03
  N01W033              JUNCTION     0.36     0.52  5291.25     0  08:16        0.52
  N01W0330             JUNCTION     0.03     0.04  5297.80     0  08:00        0.04
  N01W0331             JUNCTION     0.01     0.02  5294.61     0  07:31        0.02
  N01W0332             JUNCTION     0.01     0.02  5293.34     0  07:52        0.02
  N01W0333             JUNCTION     0.08     0.11  5292.99     0  08:00        0.11
  N01W0334             JUNCTION     0.06     0.09  5301.35     0  08:00        0.09
  N01W0335             JUNCTION     0.07     0.10  5303.18     0  08:00        0.10
  N01W0336             JUNCTION     0.06     0.09  5304.71     0  08:00        0.09
  N01W0337             JUNCTION     0.04     0.06  5307.00     0  08:00        0.06
  N01W0338             JUNCTION     0.04     0.06  5308.39     0  08:00        0.06
  N01W0339             JUNCTION     0.03     0.05  5314.36     0  08:00        0.05
  N01W034              JUNCTION     0.41     0.60  5291.61     0  08:16        0.60
  N01W0340             JUNCTION     0.02     0.03  5319.90     0  08:00        0.03
  N01W0341             JUNCTION     0.04     0.05  5307.16     0  08:00        0.05
  N01W0342             JUNCTION     0.03     0.04  5312.97     0  08:00        0.04
  N01W0343             JUNCTION     0.01     0.02  5323.99     0  08:00        0.02
  N01W0344             JUNCTION     0.04     0.06  5304.00     0  08:00        0.06
  N01W0345             JUNCTION     0.04     0.05  5306.52     0  07:58        0.05
  N01W0346             JUNCTION     0.02     0.03  5322.41     0  08:00        0.03
  N01W0347             JUNCTION     0.08     0.11  5283.13     0  08:00        0.11
  N01W0348             JUNCTION     0.12     0.16  5282.87     0  08:00        0.16
  N01W0349             JUNCTION     0.08     0.12  5282.67     0  08:00        0.12
  N01W035              JUNCTION     3.45     3.70  5293.65     0  08:15        3.70
  N01W0350             JUNCTION     0.08     0.11  5282.42     0  08:00        0.11
  N01W0351             JUNCTION     0.09     0.13  5289.63     0  08:00        0.13
  N01W0352             JUNCTION     0.05     0.07  5294.05     0  08:00        0.07
  N01W0353             JUNCTION     0.04     0.06  5298.83     0  08:00        0.06
  N01W0354             JUNCTION     0.03     0.04  5307.62     0  07:59        0.04
  N01W0355             JUNCTION     0.02     0.03  5320.22     0  07:54        0.03
  N01W0356             JUNCTION     0.14     0.21  5280.86     0  08:00        0.21
  N01W0357             JUNCTION     0.13     0.19  5281.58     0  08:00        0.19
  N01W0358             JUNCTION     0.12     0.17  5284.43     0  08:00        0.17
  N01W0359             JUNCTION     0.06     0.08  5286.42     0  08:00        0.08
  N01W036              JUNCTION     1.12     1.48  5293.93     0  08:15        1.48
  N01W0360             JUNCTION     0.03     0.04  5304.14     0  08:00        0.04
  N01W0361             JUNCTION     0.03     0.04  5311.83     0  08:00        0.04
  N01W0362             JUNCTION     0.01     0.02  5314.58     0  08:00        0.02
  N01W0363             JUNCTION     0.06     0.07  5273.88     0  08:00        0.07
  N01W0364             JUNCTION     0.06     0.07  5272.03     0  08:00        0.07
  N01W0365             JUNCTION     0.17     0.24  5271.80     0  08:00        0.24
  N01W0366             JUNCTION     0.29     0.41  5272.22     0  08:00        0.41
  N01W0367             JUNCTION     0.02     0.02  5274.48     0  07:31        0.02
  N01W0368             JUNCTION     0.12     0.18  5273.19     0  08:00        0.18
  N01W0369             JUNCTION     0.06     0.09  5277.45     0  08:00        0.09
  N01W037              JUNCTION     0.46     0.67  5296.45     0  08:14        0.67
  N01W0370             JUNCTION     0.05     0.07  5285.13     0  08:00        0.07
  N01W0371             JUNCTION     0.06     0.09  5286.84     0  08:00        0.09
  N01W0372             JUNCTION     0.03     0.05  5299.40     0  08:00        0.05
  N01W0373             JUNCTION     0.03     0.04  5307.07     0  08:00        0.04
  N01W0374             JUNCTION     0.02     0.03  5314.32     0  08:00        0.03
  N01W0375             JUNCTION     0.10     0.15  5274.33     0  08:00        0.15
  N01W0376             JUNCTION     0.17     0.24  5274.59     0  08:00        0.24
  N01W0377             JUNCTION     0.06     0.09  5280.91     0  08:00        0.09
  N01W0378             JUNCTION     0.06     0.09  5286.64     0  08:00        0.09
  N01W0379             JUNCTION     0.04     0.06  5292.29     0  08:00        0.06
  N01W038              JUNCTION     0.09     0.12  5305.49     0  08:00        0.12
  N01W0380             JUNCTION     0.04     0.05  5298.70     0  08:00        0.05
  N01W0381             JUNCTION     0.03     0.04  5304.87     0  08:00        0.04
  N01W0382             JUNCTION     0.02     0.03  5311.16     0  08:00        0.03
  N01W0383             JUNCTION     0.05     0.09  5310.19     0  10:56        0.09
  N01W0384             JUNCTION     0.05     0.07  5290.27     0  08:00        0.07
  N01W0385             JUNCTION     0.04     0.06  5296.41     0  08:00        0.06
  N01W0386             JUNCTION     0.03     0.04  5302.95     0  08:00        0.04
  N01W0387             JUNCTION     0.02     0.03  5306.54     0  08:00        0.03
  N01W0388             JUNCTION     0.05     0.09  5305.96     0  11:00        0.09
  N01W0389             JUNCTION     0.06     0.10  5307.61     0  11:00        0.10
  N01W039              JUNCTION     0.31     0.44  5301.22     0  08:13        0.44
  N01W0390             JUNCTION     0.07     0.11  5292.05     0  09:00        0.11
  N01W0391             JUNCTION     0.07     0.10  5296.04     0  09:00        0.10
  N01W0392             JUNCTION     0.07     0.10  5299.55     0  11:00        0.10
  N01W0393             JUNCTION     0.33     0.50  5324.40     0  08:11        0.50
  N01W0394             JUNCTION     0.06     0.09  5302.82     0  11:00        0.09
  N01W0395             JUNCTION     0.06     0.10  5303.73     0  11:00        0.10
  N01W0396             JUNCTION     0.05     0.07  5269.90     0  08:00        0.07
  N01W0397             JUNCTION     0.16     0.24  5270.74     0  08:00        0.24
  N01W0398             JUNCTION     0.32     0.47  5303.01     0  08:12        0.47
  N01W0399             JUNCTION     0.42     0.68  5256.18     0  08:02        0.67
  N01W03999            JUNCTION     0.08     0.10  5274.10     0  08:00        0.10
  N01W041              JUNCTION     0.31     0.38  5316.91     0  08:00        0.38
  N01W0410             JUNCTION     0.04     0.05  5306.72     0  07:56        0.05
  N01W0411             JUNCTION     0.02     0.02  5323.83     0  07:50        0.02
  N01W0412             JUNCTION     0.01     0.02  5329.61     0  07:33        0.02
  N01W0413             JUNCTION     0.05     0.06  5296.48     0  08:00        0.06
  N01W0414             JUNCTION     0.08     0.11  5286.96     0  07:58        0.11
  N01W0415             JUNCTION     0.14     0.18  5284.35     0  08:00        0.18
  N01W0416             JUNCTION     0.13     0.18  5282.04     0  07:59        0.18
  N01W0417             JUNCTION     0.09     0.12  5285.94     0  07:59        0.12
  N01W0418             JUNCTION     0.06     0.07  5310.16     0  07:21        0.07
  N01W0419             JUNCTION     0.05     0.06  5309.23     0  07:54        0.06
  N01W042              JUNCTION     0.10     0.13  5329.11     0  08:00        0.13
  N01W0420             JUNCTION     0.06     0.08  5299.22     0  07:46        0.08
  N01W0421             JUNCTION     0.09     0.12  5289.11     0  07:59        0.12
  N01W0422             JUNCTION     0.03     0.03  5295.43     0  07:48        0.03
  N01W0423             JUNCTION     0.05     0.07  5307.16     0  07:48        0.07
  N01W0424             JUNCTION     0.07     0.10  5301.27     0  08:00        0.10
  N01W0425             JUNCTION     0.07     0.09  5297.35     0  08:00        0.09
  N01W0426             JUNCTION     0.05     0.06  5335.32     0  10:58        0.06
  N01W0427             JUNCTION     0.06     0.07  5340.78     0  10:58        0.07
  N01W0428             JUNCTION     0.11     0.14  5320.88     0  08:00        0.14
  N01W0429             JUNCTION     0.06     0.08  5319.33     0  08:00        0.08
  N01W043              JUNCTION     0.10     0.13  5338.03     0  08:00        0.13
  N01W0430             JUNCTION     0.09     0.11  5308.20     0  08:00        0.11
  N01W0431             JUNCTION     0.10     0.12  5302.70     0  08:00        0.12
  N01W0432             JUNCTION     0.09     0.11  5316.88     0  08:00        0.11
  N01W0433             JUNCTION     0.10     0.12  5311.28     0  08:00        0.12
  N01W0434             JUNCTION     0.05     0.07  5327.42     0  10:43        0.07
  N01W0435             JUNCTION     0.08     0.10  5320.44     0  11:00        0.10
  N01W0436             JUNCTION     0.04     0.04  5321.51     0  11:00        0.04
  N01W0437             JUNCTION     0.03     0.04  5326.15     0  11:00        0.04
  N01W0438             JUNCTION     0.07     0.09  5314.33     0  07:52        0.09
  N01W0439             JUNCTION     0.03     0.04  5321.19     0  07:20        0.04
  N01W044              JUNCTION     0.15     0.19  5339.33     0  08:00        0.19
  N01W0440             JUNCTION     0.06     0.08  5320.69     0  08:00        0.08
  N01W0441             JUNCTION     0.06     0.08  5319.21     0  07:49        0.08
  N01W0442             JUNCTION     0.04     0.05  5323.30     0  07:46        0.05
  N01W0443             JUNCTION     0.05     0.06  5329.74     0  10:35        0.06
  N01W0444             JUNCTION     0.06     0.08  5314.02     0  08:00        0.08
  N01W0445             JUNCTION     0.06     0.07  5312.88     0  08:00        0.07
  N01W0446             JUNCTION     0.04     0.05  5312.35     0  08:00        0.05
  N01W0447             JUNCTION     0.04     0.05  5368.60     0  07:57        0.05
  N01W0448             JUNCTION     0.10     0.14  5284.86     0  08:00        0.14
  N01W0449             JUNCTION     0.08     0.11  5311.76     0  08:00        0.11
  N01W045              JUNCTION     0.16     0.20  5340.41     0  08:00        0.20
  N01W0450             JUNCTION     0.06     0.08  5349.95     0  08:00        0.08
  N01W0451             JUNCTION     0.05     0.07  5354.12     0  08:00        0.07
  N01W0452             JUNCTION     0.03     0.04  5398.21     0  07:49        0.04
  N01W0453             JUNCTION     0.04     0.05  5348.97     0  07:49        0.05
  N01W0454             JUNCTION     0.05     0.06  5347.87     0  07:56        0.06
  N01W0455             JUNCTION     0.08     0.10  5345.88     0  08:00        0.10
  N01W0456             JUNCTION     0.06     0.08  5348.85     0  07:59        0.08
  N01W0457             JUNCTION     0.04     0.05  5357.06     0  07:55        0.05
  N01W0458             JUNCTION     0.04     0.05  5363.83     0  07:56        0.05
  N01W0459             JUNCTION     0.05     0.07  5366.27     0  07:52        0.07
  N01W046              JUNCTION     0.12     0.16  5341.58     0  08:17        0.16
  N01W0460             JUNCTION     0.10     0.13  5324.57     0  08:00        0.13
  N01W0461             JUNCTION     0.43     0.52  5312.59     0  08:00        0.52
  N01W0462             JUNCTION     0.03     0.04  5369.67     0  07:59        0.04
  N01W0463             JUNCTION     0.02     0.02  5355.02     0  07:16        0.02
  N01W0464             JUNCTION     0.06     0.08  5357.70     0  07:57        0.08
  N01W0465             JUNCTION     0.04     0.06  5367.81     0  07:53        0.06
  N01W047              JUNCTION     0.13     0.17  5342.18     0  08:15        0.17
  N01W048              JUNCTION     0.10     0.13  5343.34     0  08:13        0.13
  N01W049              JUNCTION     0.12     0.15  5344.39     0  08:09        0.15
  N01W04999            JUNCTION     0.03     0.03  5371.52     0  07:35        0.03
  N01W051              JUNCTION     0.08     0.12  5427.66     0  08:00        0.12
  N01W0510             JUNCTION     0.12     0.17  5398.71     0  08:00        0.17
  N01W05100            JUNCTION     0.06     0.08  5381.31     0  08:00        0.08
  N01W05101            JUNCTION     0.04     0.05  5384.71     0  07:58        0.05
  N01W05102            JUNCTION     0.03     0.04  5386.12     0  07:51        0.04
  N01W05103            JUNCTION     0.03     0.04  5389.45     0  07:58        0.04
  N01W05104            JUNCTION     0.03     0.03  5398.41     0  07:50        0.03
  N01W05105            JUNCTION     0.05     0.07  5376.30     0  07:51        0.07
  N01W05106            JUNCTION     0.05     0.06  5378.65     0  07:51        0.06
  N01W05107            JUNCTION     0.01     0.02  5404.47     0  07:49        0.02
  N01W05108            JUNCTION     0.22     0.34  5364.80     0  08:01        0.34
  N01W05109            JUNCTION     0.04     0.06  5404.16     0  07:57        0.06
  N01W0511             JUNCTION     0.02     0.03  5410.83     0  08:00        0.03
  N01W05110            JUNCTION     0.14     0.20  5400.01     0  08:00        0.20
  N01W05111            JUNCTION     0.17     0.24  5399.19     0  08:00        0.24
  N01W05112            JUNCTION     0.13     0.19  5404.80     0  08:00        0.19
  N01W05113            JUNCTION     0.03     0.03  5423.76     0  07:45        0.03
  N01W05114            JUNCTION     0.08     0.11  5394.18     0  07:57        0.11
  N01W05115            JUNCTION     0.02     0.02  5397.02     0  07:26        0.02
  N01W05116            JUNCTION     0.04     0.05  5357.18     0  07:52        0.05
  N01W05117            JUNCTION     0.02     0.13  5382.96     0  11:59        0.13
  N01W05118            JUNCTION     0.04     0.05  5435.90     0  07:19        0.05
  N01W0512             JUNCTION     0.02     0.03  5414.08     0  08:00        0.03
  N01W0513             JUNCTION     0.08     0.12  5420.75     0  07:58        0.12
  N01W0514             JUNCTION     0.08     0.12  5426.48     0  08:00        0.12
  N01W0515             JUNCTION     0.06     0.08  5445.14     0  07:52        0.08
  N01W0516             JUNCTION     0.05     0.08  5456.11     0  07:58        0.08
  N01W0517             JUNCTION     0.05     0.06  5464.08     0  07:54        0.06
  N01W0518             JUNCTION     0.04     0.06  5473.90     0  07:57        0.06
  N01W0519             JUNCTION     0.03     0.05  5481.73     0  07:50        0.05
  N01W052              JUNCTION     0.11     0.16  5417.26     0  08:00        0.16
  N01W0520             JUNCTION     0.03     0.04  5485.01     0  07:56        0.04
  N01W0521             JUNCTION     0.02     0.03  5492.69     0  07:44        0.03
  N01W0522             JUNCTION     0.08     0.12  5433.78     0  07:58        0.12
  N01W0523             JUNCTION     0.05     0.08  5439.84     0  07:56        0.08
  N01W0524             JUNCTION     0.05     0.07  5448.97     0  07:58        0.07
  N01W0525             JUNCTION     0.04     0.06  5461.69     0  07:58        0.06
  N01W0526             JUNCTION     0.04     0.05  5468.31     0  07:56        0.05
  N01W0527             JUNCTION     0.02     0.03  5474.20     0  08:00        0.03
  N01W0528             JUNCTION     0.09     0.12  5430.95     0  07:58        0.12
  N01W053              JUNCTION     0.14     0.20  5403.98     0  08:00        0.20
  N01W0532             JUNCTION     0.17     0.24  5387.24     0  08:00        0.24
  N01W0533             JUNCTION     0.12     0.17  5394.52     0  08:00        0.17
  N01W0534             JUNCTION     0.10     0.14  5398.46     0  08:00        0.14
  N01W0535             JUNCTION     0.09     0.12  5405.62     0  08:00        0.12
  N01W0536             JUNCTION     0.11     0.15  5410.67     0  08:00        0.15
  N01W0537             JUNCTION     0.11     0.15  5418.25     0  08:00        0.15
  N01W0538             JUNCTION     0.02     0.02  5416.60     0  08:00        0.02
  N01W0539             JUNCTION     0.02     0.02  5419.02     0  07:52        0.02
  N01W054              JUNCTION     0.16     0.22  5401.61     0  08:00        0.22
  N01W0540             JUNCTION     0.14     0.20  5419.50     0  08:00        0.20
  N01W0541             JUNCTION     0.06     0.08  5428.90     0  08:00        0.08
  N01W0542             JUNCTION     0.05     0.07  5437.61     0  08:00        0.07
  N01W0543             JUNCTION     0.04     0.06  5445.40     0  08:00        0.06
  N01W0544             JUNCTION     0.07     0.10  5446.43     0  08:00        0.10
  N01W0545             JUNCTION     0.03     0.04  5453.54     0  07:08        0.04
  N01W0546             JUNCTION     0.06     0.08  5424.31     0  08:00        0.08
  N01W0547             JUNCTION     0.11     0.15  5420.83     0  08:00        0.15
  N01W0548             JUNCTION     0.10     0.14  5424.47     0  08:00        0.14
  N01W0549             JUNCTION     0.13     0.19  5425.75     0  08:00        0.19
  N01W055              JUNCTION     0.05     0.07  5416.13     0  07:54        0.07
  N01W0550             JUNCTION     0.02     0.03  5436.26     0  08:00        0.03
  N01W0551             JUNCTION     0.03     0.04  5438.26     0  08:00        0.04
  N01W0552             JUNCTION     0.12     0.18  5425.98     0  08:00        0.18
  N01W0553             JUNCTION     0.11     0.16  5426.98     0  08:00        0.16
  N01W0554             JUNCTION     0.07     0.10  5435.24     0  08:00        0.10
  N01W0555             JUNCTION     0.01     0.01  5423.36     0  08:00        0.01
  N01W0556             JUNCTION     0.03     0.04  5408.01     0  08:00        0.04
  N01W0557             JUNCTION     0.11     0.16  5403.57     0  08:00        0.16
  N01W0558             JUNCTION     0.03     0.04  5403.08     0  07:57        0.04
  N01W0559             JUNCTION     0.02     0.03  5400.84     0  07:59        0.03
  N01W056              JUNCTION     0.06     0.08  5418.07     0  07:56        0.08
  N01W0560             JUNCTION     0.08     0.10  5396.61     0  07:59        0.10
  N01W0561             JUNCTION     0.07     0.09  5398.92     0  07:46        0.09
  N01W0562             JUNCTION     0.06     0.08  5390.38     0  07:58        0.08
  N01W0563             JUNCTION     0.15     0.20  5378.67     0  08:00        0.20
  N01W0564             JUNCTION     0.14     0.18  5377.79     0  08:00        0.18
  N01W0565             JUNCTION    11.79    13.20  5366.98     0  08:01       13.20
  N01W0566             JUNCTION     3.98     4.83  5367.07     0  08:00        4.83
  N01W0567             JUNCTION     0.04     0.05  5379.98     0  08:00        0.05
  N01W0568             JUNCTION     0.13     0.18  5368.84     0  08:00        0.18
  N01W0569             JUNCTION     0.22     0.31  5370.23     0  08:00        0.31
  N01W057              JUNCTION     0.04     0.05  5434.49     0  07:54        0.05
  N01W0570             JUNCTION     0.20     0.28  5374.28     0  08:00        0.28
  N01W0571             JUNCTION     0.17     0.24  5377.48     0  08:00        0.24
  N01W0572             JUNCTION     0.13     0.19  5381.92     0  08:00        0.19
  N01W0573             JUNCTION     0.24     0.35  5383.08     0  08:00        0.35
  N01W0574             JUNCTION     0.20     0.30  5384.04     0  08:00        0.30
  N01W0575             JUNCTION     0.02     0.02  5423.10     0  07:56        0.02
  N01W0576             JUNCTION     0.06     0.08  5438.04     0  07:51        0.08
  N01W0577             JUNCTION     0.16     0.22  5387.07     0  08:00        0.22
  N01W0578             JUNCTION     0.13     0.18  5386.20     0  08:00        0.18
  N01W0579             JUNCTION     0.14     0.20  5385.74     0  08:00        0.20
  N01W058              JUNCTION     0.02     0.03  5418.72     0  07:58        0.03
  N01W0580             JUNCTION     0.18     0.26  5385.11     0  08:00        0.26
  N01W0581             JUNCTION     0.14     0.20  5384.90     0  08:00        0.20
  N01W0582             JUNCTION     0.16     0.22  5382.29     0  08:00        0.22
  N01W0583             JUNCTION     0.28     0.61  5382.96     0  11:59        0.61
  N01W0584             JUNCTION     0.02     0.03  5452.89     0  07:13        0.03
  N01W0585             JUNCTION     0.05     0.06  5410.92     0  07:51        0.06
  N01W0586             JUNCTION     0.04     0.05  5410.33     0  07:53        0.05
  N01W0587             JUNCTION     0.05     0.06  5396.56     0  08:00        0.06
  N01W0588             JUNCTION     0.07     0.09  5404.80     0  08:00        0.09
  N01W0589             JUNCTION     0.04     0.05  5396.11     0  07:36        0.05
  N01W059              JUNCTION     0.12     0.17  5387.23     0  08:00        0.17
  N01W0590             JUNCTION     0.03     0.04  5407.60     0  07:55        0.04
  N01W0591             JUNCTION     0.05     0.06  5378.02     0  08:00        0.06
  N01W0592             JUNCTION     0.03     0.04  5377.48     0  08:00        0.04
  N01W0593             JUNCTION     0.02     0.02  5371.48     0  07:46        0.02
  N01W0594             JUNCTION     0.02     0.02  5370.42     0  07:42        0.02
  N01W0595             JUNCTION     0.05     0.06  5367.07     0  08:00        0.06
  N01W0596             JUNCTION     0.05     0.06  5368.01     0  08:00        0.06
  N01W0597             JUNCTION     0.03     0.04  5371.89     0  08:00        0.04
  N01W0598             JUNCTION     0.03     0.04  5370.83     0  08:00        0.04
  N01W0599             JUNCTION     0.02     0.03  5373.47     0  08:00        0.03
  N01W05998            JUNCTION     0.03     0.03  5405.97     0  07:22        0.03
  N01W05999            JUNCTION     0.03     0.04  5379.28     0  07:42        0.04
  N01W061              JUNCTION     0.05     0.07  5489.41     0  07:54        0.07
  N01W0610             JUNCTION     0.05     0.07  5514.94     0  07:55        0.07
  N01W0611             JUNCTION     0.04     0.06  5542.87     0  07:50        0.06
  N01W0612             JUNCTION     0.05     0.07  5580.61     0  07:57        0.07
  N01W0613             JUNCTION     0.03     0.04  5620.65     0  07:45        0.04
  N01W0614             JUNCTION     0.08     0.12  5484.12     0  07:59        0.12
  N01W0615             JUNCTION     0.07     0.10  5510.08     0  07:58        0.10
  N01W0616             JUNCTION     0.07     0.10  5529.36     0  07:58        0.10
  N01W0617             JUNCTION     0.06     0.08  5556.21     0  07:57        0.08
  N01W0618             JUNCTION     0.05     0.07  5574.60     0  07:56        0.07
  N01W0619             JUNCTION     0.03     0.05  5584.73     0  07:55        0.05
  N01W062              JUNCTION     0.05     0.07  5507.36     0  07:55        0.07
  N01W0620             JUNCTION     0.07     0.11  5472.67     0  07:59        0.11
  N01W0621             JUNCTION     0.07     0.09  5492.03     0  07:55        0.09
  N01W0622             JUNCTION     0.07     0.10  5507.55     0  08:00        0.10
  N01W0623             JUNCTION     0.05     0.07  5536.23     0  07:56        0.07
  N01W0624             JUNCTION     0.05     0.07  5560.26     0  07:58        0.07
  N01W0625             JUNCTION     0.08     0.11  5561.16     0  07:56        0.11
  N01W0626             JUNCTION     0.03     0.05  5579.03     0  07:51        0.05
  N01W0627             JUNCTION     0.02     0.03  5605.58     0  07:13        0.03
  N01W0628             JUNCTION     0.03     0.04  5596.40     0  07:37        0.04
  N01W0629             JUNCTION     0.07     0.10  5458.54     0  08:00        0.10
  N01W063              JUNCTION     0.04     0.06  5525.25     0  07:56        0.06
  N01W0630             JUNCTION     0.07     0.09  5472.24     0  08:00        0.09
  N01W0631             JUNCTION     0.06     0.08  5500.13     0  08:00        0.08
  N01W0632             JUNCTION     0.06     0.09  5509.49     0  08:00        0.09
  N01W0633             JUNCTION     0.06     0.08  5520.40     0  08:00        0.08
  N01W0634             JUNCTION     0.06     0.08  5529.08     0  08:00        0.08
  N01W0635             JUNCTION     0.03     0.05  5551.96     0  07:51        0.05
  N01W0636             JUNCTION     0.02     0.03  5575.40     0  08:00        0.03
  N01W0637             JUNCTION     0.08     0.11  5447.62     0  08:00        0.11
  N01W0638             JUNCTION     0.08     0.11  5453.61     0  07:59        0.11
  N01W0639             JUNCTION     0.07     0.10  5472.85     0  07:54        0.10
  N01W064              JUNCTION     0.04     0.06  5545.86     0  07:49        0.06
  N01W0640             JUNCTION     0.06     0.08  5487.89     0  07:55        0.08
  N01W0641             JUNCTION     0.06     0.09  5492.23     0  07:55        0.09
  N01W0642             JUNCTION     0.01     0.02  5507.11     0  07:55        0.02
  N01W0643             JUNCTION     0.02     0.03  5510.39     0  07:50        0.03
  N01W0644             JUNCTION     0.01     0.01  5512.10     0  07:50        0.01
  N01W0645             JUNCTION     0.05     0.07  5504.71     0  07:56        0.07
  N01W0646             JUNCTION     0.04     0.06  5520.34     0  07:54        0.06
  N01W0647             JUNCTION     0.03     0.04  5551.09     0  08:00        0.04
  N01W0648             JUNCTION     0.04     0.05  5559.71     0  07:55        0.05
  N01W0649             JUNCTION     0.02     0.03  5564.42     0  07:40        0.03
  N01W065              JUNCTION     0.04     0.05  5563.65     0  07:50        0.05
  N01W0650             JUNCTION     0.01     0.01  5434.96     0  08:00        0.01
  N01W0651             JUNCTION     0.02     0.02  5434.02     0  08:00        0.02
  N01W0652             JUNCTION     0.03     0.05  5429.08     0  08:00        0.05
  N01W0653             JUNCTION     0.02     0.03  5435.45     0  08:00        0.03
  N01W0654             JUNCTION     0.03     0.04  5442.61     0  08:00        0.04
  N01W0655             JUNCTION     0.09     0.13  5440.83     0  08:00        0.13
  N01W0656             JUNCTION     0.06     0.09  5458.78     0  08:00        0.09
  N01W0657             JUNCTION     0.06     0.09  5472.35     0  08:00        0.09
  N01W0658             JUNCTION     0.04     0.06  5498.45     0  08:00        0.06
  N01W0659             JUNCTION     0.04     0.06  5501.57     0  08:00        0.06
  N01W066              JUNCTION     0.03     0.05  5579.49     0  07:57        0.05
  N01W0660             JUNCTION     0.03     0.04  5522.35     0  08:00        0.04
  N01W0661             JUNCTION     0.03     0.04  5524.86     0  08:00        0.04
  N01W0662             JUNCTION     0.04     0.05  5424.78     0  08:00        0.05
  N01W0663             JUNCTION     0.04     0.05  5421.02     0  08:00        0.05
  N01W0664             JUNCTION     0.11     0.15  5430.15     0  08:00        0.15
  N01W0665             JUNCTION     0.09     0.14  5435.78     0  08:00        0.14
  N01W0666             JUNCTION     0.07     0.09  5449.64     0  08:00        0.09
  N01W0667             JUNCTION     0.06     0.08  5460.49     0  07:59        0.08
  N01W0668             JUNCTION     0.05     0.08  5471.21     0  08:00        0.08
  N01W0669             JUNCTION     0.05     0.07  5479.18     0  07:59        0.07
  N01W067              JUNCTION     0.02     0.03  5614.71     0  07:59        0.03
  N01W0670             JUNCTION     0.04     0.06  5490.65     0  07:57        0.06
  N01W0671             JUNCTION     0.03     0.04  5504.64     0  08:00        0.04
  N01W0672             JUNCTION     0.03     0.04  5506.38     0  07:59        0.04
  N01W0673             JUNCTION     0.02     0.03  5514.82     0  07:56        0.03
  N01W0674             JUNCTION     0.01     0.01  5513.25     0  07:27        0.01
  N01W0675             JUNCTION     0.02     0.02  5428.74     0  07:34        0.02
  N01W0676             JUNCTION     0.05     0.07  5486.51     0  08:00        0.07
  N01W0677             JUNCTION     0.03     0.04  5595.71     0  07:46        0.04
  N01W0678             JUNCTION     0.03     0.04  5413.07     0  07:50        0.04
  N01W0679             JUNCTION     0.02     0.03  5415.85     0  07:20        0.03
  N01W068              JUNCTION     0.02     0.02  5635.48     0  07:43        0.02
  N01W0680             JUNCTION     0.01     0.01  5427.38     0  07:29        0.01
  N01W0681             JUNCTION     0.07     0.10  5462.73     0  07:59        0.10
  N01W0682             JUNCTION     0.02     0.02  5443.25     0  07:48        0.02
  N01W0683             JUNCTION     0.06     0.09  5543.19     0  07:01        0.09
  N01W069              JUNCTION     0.06     0.09  5486.47     0  07:59        0.09
  N01W071              JUNCTION     0.02     0.03  5634.66     0  07:56        0.03
  N01W0710             JUNCTION     0.01     0.02  5481.04     0  07:53        0.02
  N01W07100            JUNCTION     0.03     0.04  5610.41     0  07:16        0.04
  N01W07101            JUNCTION     0.02     0.03  5691.41     0  07:59        0.03
  N01W07102            JUNCTION     0.02     0.03  5694.83     0  07:17        0.03
  N01W07103            JUNCTION     0.06     0.08  5540.37     0  07:59        0.08
  N01W07104            JUNCTION     0.03     0.04  5606.65     0  07:58        0.04
  N01W07105            JUNCTION     0.02     0.02  5551.28     0  08:00        0.02
  N01W07106            JUNCTION     0.03     0.04  5620.53     0  07:57        0.04
  N01W07107            JUNCTION     0.04     0.05  5542.51     0  08:00        0.05
  N01W07108            JUNCTION     0.05     0.07  5589.93     0  07:56        0.07
  N01W07109            JUNCTION     0.03     0.04  5656.52     0  07:58        0.04
  N01W0711             JUNCTION     0.03     0.04  5474.89     0  08:00        0.04
  N01W07110            JUNCTION     0.02     0.02  5664.97     0  07:16        0.02
  N01W07111            JUNCTION     0.05     0.08  5601.73     0  07:53        0.08
  N01W07112            JUNCTION     0.04     0.06  5599.86     0  07:55        0.06
  N01W07113            JUNCTION     0.02     0.03  5649.03     0  07:28        0.03
  N01W07114            JUNCTION     0.01     0.02  5744.89     0  07:22        0.02
  N01W07115            JUNCTION     0.02     0.02  5610.06     0  07:01        0.02
  N01W07116            JUNCTION     0.02     0.02  5613.97     0  07:06        0.02
  N01W07117            JUNCTION     0.01     0.02  5628.88     0  07:18        0.02
  N01W07118            JUNCTION     0.01     0.01  5648.46     0  07:25        0.01
  N01W07119            JUNCTION     0.01     0.01  5506.85     0  07:31        0.01
  N01W0712             JUNCTION     0.13     0.19  5474.10     0  08:00        0.19
  N01W0713             JUNCTION     0.01     0.02  5663.97     0  07:27        0.02
  N01W0714             JUNCTION     0.02     0.03  5554.24     0  07:53        0.03
  N01W0715             JUNCTION     0.03     0.05  5549.43     0  07:57        0.05
  N01W0716             JUNCTION     0.04     0.05  5527.54     0  08:00        0.05
  N01W0717             JUNCTION     0.08     0.11  5509.83     0  07:59        0.11
  N01W0718             JUNCTION     0.09     0.12  5506.37     0  07:58        0.12
  N01W0719             JUNCTION     0.01     0.02  5554.76     0  07:54        0.02
  N01W072              JUNCTION     0.02     0.03  5601.06     0  07:38        0.03
  N01W0720             JUNCTION     0.08     0.11  5522.67     0  07:54        0.11
  N01W0721             JUNCTION     0.03     0.05  5527.92     0  08:00        0.05
  N01W0722             JUNCTION     0.05     0.07  5517.94     0  08:00        0.07
  N01W0723             JUNCTION     0.04     0.05  5511.51     0  08:00        0.05
  N01W0724             JUNCTION     0.04     0.05  5501.54     0  08:00        0.05
  N01W0725             JUNCTION     0.04     0.06  5488.02     0  08:00        0.06
  N01W0726             JUNCTION     0.02     0.03  5556.67     0  08:00        0.03
  N01W0727             JUNCTION     0.01     0.02  5567.01     0  08:00        0.02
  N01W0728             JUNCTION     0.03     0.04  5569.16     0  08:00        0.04
  N01W0729             JUNCTION     0.03     0.04  5560.66     0  08:00        0.04
  N01W073              JUNCTION     0.03     0.04  5565.73     0  07:56        0.04
  N01W0730             JUNCTION     0.04     0.05  5559.64     0  08:00        0.05
  N01W0731             JUNCTION     0.02     0.03  5558.41     0  08:00        0.03
  N01W0732             JUNCTION     0.02     0.03  5540.87     0  08:00        0.03
  N01W0733             JUNCTION     0.01     0.02  5528.60     0  07:55        0.02
  N01W0734             JUNCTION     0.02     0.02  5500.17     0  07:49        0.02
  N01W0735             JUNCTION     0.07     0.09  5519.92     0  08:00        0.09
  N01W0736             JUNCTION     0.04     0.06  5501.54     0  08:00        0.06
  N01W0737             JUNCTION     0.04     0.06  5522.96     0  08:00        0.06
  N01W0738             JUNCTION     0.02     0.02  5682.95     0  07:00        0.02
  N01W0739             JUNCTION     0.03     0.04  5568.88     0  08:00        0.04
  N01W074              JUNCTION     0.03     0.05  5557.63     0  07:59        0.05
  N01W0740             JUNCTION     0.02     0.03  5592.87     0  08:00        0.03
  N01W0741             JUNCTION     0.02     0.03  5610.27     0  08:00        0.03
  N01W0742             JUNCTION     0.01     0.01  5644.88     0  08:00        0.01
  N01W0743             JUNCTION     0.01     0.02  5655.45     0  07:52        0.02
  N01W0744             JUNCTION     0.02     0.03  5630.65     0  07:59        0.03
  N01W0745             JUNCTION     0.03     0.04  5595.70     0  07:57        0.04
  N01W0746             JUNCTION     0.03     0.04  5576.31     0  08:00        0.04
  N01W0747             JUNCTION     0.06     0.09  5556.08     0  07:59        0.09
  N01W0748             JUNCTION     0.06     0.09  5565.13     0  08:00        0.09
  N01W0749             JUNCTION     0.03     0.04  5590.10     0  07:58        0.04
  N01W075              JUNCTION     0.05     0.07  5599.52     0  07:40        0.07
  N01W0750             JUNCTION     0.02     0.03  5612.58     0  07:56        0.03
  N01W0751             JUNCTION     0.02     0.03  5635.84     0  07:51        0.03
  N01W0752             JUNCTION     0.01     0.01  5661.61     0  07:57        0.01
  N01W0753             JUNCTION     0.01     0.02  5673.02     0  07:59        0.02
  N01W0754             JUNCTION     0.02     0.02  5648.93     0  07:56        0.02
  N01W0755             JUNCTION     0.02     0.03  5625.22     0  07:59        0.03
  N01W0756             JUNCTION     0.03     0.05  5602.34     0  07:59        0.05
  N01W0757             JUNCTION     0.04     0.05  5588.75     0  08:00        0.05
  N01W0758             JUNCTION     0.04     0.06  5574.86     0  07:55        0.06
  N01W0759             JUNCTION     0.02     0.03  5547.87     0  08:00        0.03
  N01W076              JUNCTION     0.04     0.06  5526.42     0  07:49        0.06
  N01W0760             JUNCTION     0.02     0.03  5566.23     0  08:00        0.03
  N01W0761             JUNCTION     0.02     0.03  5568.89     0  07:55        0.03
  N01W0762             JUNCTION     0.02     0.02  5591.25     0  07:58        0.02
  N01W0763             JUNCTION     0.01     0.01  5610.31     0  07:54        0.01
  N01W0764             JUNCTION     0.03     0.04  5625.04     0  07:55        0.04
  N01W0765             JUNCTION     0.02     0.03  5652.22     0  07:47        0.03
  N01W0766             JUNCTION     0.06     0.09  5546.37     0  07:59        0.09
  N01W0767             JUNCTION     0.06     0.09  5551.05     0  07:55        0.09
  N01W0768             JUNCTION     0.06     0.09  5571.19     0  07:57        0.09
  N01W0769             JUNCTION     0.07     0.10  5578.63     0  07:56        0.10
  N01W077              JUNCTION     0.09     0.12  5492.97     0  07:57        0.12
  N01W0770             JUNCTION     0.04     0.06  5568.81     0  07:58        0.06
  N01W0771             JUNCTION     0.03     0.04  5597.48     0  07:44        0.04
  N01W0772             JUNCTION     0.04     0.06  5575.97     0  07:59        0.06
  N01W0773             JUNCTION     0.01     0.01  5565.00     0  07:51        0.01
  N01W0774             JUNCTION     0.01     0.02  5587.31     0  07:50        0.02
  N01W0775             JUNCTION     0.06     0.08  5584.97     0  07:56        0.08
  N01W0776             JUNCTION     0.05     0.07  5588.27     0  07:57        0.07
  N01W0777             JUNCTION     0.05     0.07  5591.79     0  07:59        0.07
  N01W0778             JUNCTION     0.04     0.06  5595.78     0  07:56        0.06
  N01W0779             JUNCTION     0.03     0.04  5611.79     0  07:54        0.04
  N01W078              JUNCTION     0.19     0.28  5483.34     0  08:00        0.28
  N01W0780             JUNCTION     0.03     0.04  5644.32     0  07:45        0.04
  N01W0781             JUNCTION     0.04     0.06  5647.38     0  07:54        0.06
  N01W0782             JUNCTION     0.02     0.02  5658.53     0  07:50        0.02
  N01W0783             JUNCTION     0.01     0.01  5671.81     0  07:17        0.01
  N01W0784             JUNCTION     0.00     0.00  5683.75     0  00:00        0.00
  N01W0785             JUNCTION     0.02     0.02  5601.07     0  07:03        0.02
  N01W0786             JUNCTION     0.04     0.06  5594.48     0  07:58        0.06
  N01W0787             JUNCTION     0.05     0.07  5601.12     0  07:48        0.07
  N01W0788             JUNCTION     0.04     0.06  5608.99     0  07:50        0.06
  N01W0789             JUNCTION     0.02     0.03  5621.22     0  07:58        0.03
  N01W079              JUNCTION     0.10     0.14  5481.92     0  08:00        0.14
  N01W0790             JUNCTION     0.02     0.03  5626.97     0  07:51        0.03
  N01W0791             JUNCTION     0.01     0.02  5643.51     0  07:25        0.02
  N01W0792             JUNCTION     0.02     0.03  5682.33     0  07:57        0.03
  N01W0793             JUNCTION     0.03     0.04  5663.51     0  07:47        0.04
  N01W0794             JUNCTION     0.03     0.04  5647.89     0  07:35        0.04
  N01W0795             JUNCTION     0.03     0.05  5639.18     0  07:52        0.05
  N01W0796             JUNCTION     0.03     0.05  5624.83     0  07:48        0.05
  N01W0797             JUNCTION     0.10     0.15  5477.42     0  08:00        0.15
  N01W0798             JUNCTION     0.07     0.10  5495.72     0  08:00        0.10
  N01W0799             JUNCTION     0.03     0.04  5626.49     0  07:06        0.04
  N02E011              JUNCTION     0.01     0.01  5225.14     0  10:53        0.01
  N02E0110             JUNCTION     0.37     0.61  5242.29     0  08:44        0.61
  N02E0111             JUNCTION     0.36     0.59  5245.16     0  08:43        0.59
  N02E0112             JUNCTION     0.04     0.05  5233.15     0  08:00        0.05
  N02E0113             JUNCTION     0.00     0.00  5235.00     0  00:00        0.00
  N02E0114             JUNCTION     0.00     0.00  5235.30     0  00:00        0.00
  N02E0115             JUNCTION     0.02     0.03  5234.03     0  07:45        0.03
  N02E0116             JUNCTION     0.04     0.05  5228.46     0  08:03        0.05
  N02E0117             JUNCTION     0.03     0.04  5228.81     0  08:00        0.04
  N02E0118             JUNCTION     0.03     0.03  5229.62     0  08:00        0.03
  N02E0119             JUNCTION     0.00     0.01  5234.20     0  08:00        0.01
  N02E012              JUNCTION     0.00     0.01  5225.76     0  09:49        0.01
  N02E0120             JUNCTION     0.33     0.55  5233.95     0  08:45        0.55
  N02E0121             JUNCTION     1.02     1.64  5235.66     0  08:12        1.63
  N02E0122             JUNCTION     0.26     0.76  5235.62     0  08:12        0.76
  N02E013              JUNCTION     0.00     0.01  5226.69     0  09:06        0.01
  N02E014              JUNCTION     0.00     0.01  5227.57     0  09:00        0.01
  N02E015              JUNCTION     0.01     0.01  5226.71     0  09:00        0.01
  N02E016              JUNCTION     0.01     0.02  5225.37     0  09:00        0.02
  N02E017              JUNCTION     0.01     0.01  5224.03     0  09:00        0.01
  N02E018              JUNCTION     0.33     0.54  5233.21     0  08:45        0.54
  N02E019              JUNCTION     0.30     0.49  5239.33     0  08:44        0.49
  N02E021              JUNCTION     0.37     0.59  5221.72     0  08:48        0.59
  N02E0210             JUNCTION     0.16     0.24  5239.13     0  08:08        0.24
  N02E0211             JUNCTION     0.16     0.23  5242.72     0  08:06        0.23
  N02E0212             JUNCTION     0.14     0.21  5246.42     0  08:06        0.21
  N02E0213             JUNCTION     0.15     0.22  5248.69     0  08:04        0.22
  N02E0215             JUNCTION     0.13     0.17  5230.94     0  11:00        0.17
  N02E0216             JUNCTION     0.13     0.17  5232.90     0  11:00        0.17
  N02E0217             JUNCTION     0.14     0.18  5235.41     0  11:00        0.18
[...]
  HDR_4557                    0.01      2.32      0.01      0.01         0.01
  HDR_4558                    0.85      2.66      0.85      1.36         0.05
  HDR_4559                    2.18      4.29      2.18      4.26         2.18
  HDR_456                     1.08     10.07      1.08      6.74         0.05
  HDR_4560                    0.01      2.80      0.01      2.75         0.01
  HDR_4561                    0.01      4.32      0.01      2.17         0.01
  HDR_4562                    2.18      2.30      2.18      0.24         2.18
  HDR_4563                    0.01      0.01      5.21      0.01         0.01
  HDR_4564                    4.62      4.71      4.62      4.80         4.62
  HDR_4565                    0.01      5.73      0.01      1.65         0.01
  HDR_4567                    0.50      0.50      3.61      0.72         0.01
  HDR_4568                    3.95      3.95      4.50      0.01         3.59
  HDR_4569                    4.52      4.76      4.52      0.09         0.03
  HDR_457                     7.72      7.72      9.35      3.91         3.90
  HDR_4570                    0.01      4.79      0.01      4.50         0.01
  HDR_4571                    0.01      5.60      0.01      2.88         0.01
  HDR_4572                    3.58      7.05      3.58      6.99         3.58
  HDR_4573                    0.01      3.58      0.01      3.56         0.01
  HDR_4577                    0.01      2.55      0.01      1.61         0.01
  HDR_4578                    1.66      5.66      1.66      5.62         1.66
  HDR_458                     8.43     10.46      8.43      1.67         0.03
  HDR_4583                    0.01      4.42      0.01      4.13         0.01
  HDR_4585                    0.01      0.01      0.01      0.02         0.01
  HDR_4586                    0.01      3.01      0.01      2.95         0.01
  HDR_4588                    0.01      0.23      0.01      0.01         0.01
  HDR_4589                    2.44      2.61      2.44      0.17         0.02
  HDR_459                     2.55      8.89      2.55      4.64         0.02
  HDR_4590                    0.01      2.92      0.01      2.85         0.01
  HDR_4591                    0.01      2.91      0.01      2.40         0.01
  HDR_4592                    0.01      4.53      0.01      4.50         0.01
  HDR_4594                    2.31      2.31      2.89      2.87         0.01
  HDR_4595                    2.89      2.89      3.13      0.01         0.01
  HDR_4596                    0.78      2.23      0.78      1.43         0.03
  HDR_4597                    2.41      4.14      2.41      2.94         2.41
  HDR_4598                    2.71      2.79      2.71      2.88         0.01
  HDR_4599                    3.44      3.44      4.12      2.68         2.68
  HDR_46                      0.01      5.43      0.01      3.66         0.01
  HDR_460                     1.71      3.23      1.71      2.53         1.71
  HDR_4600                    4.38      4.40      4.38      0.10         4.10
  HDR_4601                    0.01      4.63      0.01      4.36         0.01
  HDR_4603                    0.01      4.46      0.01      4.43         0.01
  HDR_4606                    0.01      0.01      6.14      2.05         0.01
  HDR_461                     5.11     10.72      5.11      9.00         3.41
  HDR_4610                    0.01      3.91      0.01      3.57         0.01
  HDR_4611                    3.59      4.77      3.59      0.98         0.02
  HDR_4612                    4.56      7.31      4.56      7.25         4.56
  HDR_4613                    7.69      7.69     10.28      7.66         7.66
  HDR_4614                    7.69     10.70      7.69     10.67         7.69
  HDR_4615                    0.01      9.76      0.01      9.71         0.01
  HDR_4617                    0.01      2.23      0.01      2.63         0.01
  HDR_4618                    0.01      4.83      0.01      4.80         0.01
  HDR_4619                    0.01     11.05      0.01      0.01         0.01
  HDR_462                     0.01      5.30      0.01      4.41         0.01
  HDR_4620                    0.01     11.41      0.01     11.35         0.01
  HDR_463                     0.01      0.01      8.89      0.01         0.01
  HDR_4635                    0.01      0.01      9.46      0.01         0.01
  HDR_4636                   10.09     10.09     11.35      0.01         0.01
  HDR_4637                    7.90      7.90      9.46      0.01         0.01
  HDR_47                      4.81      4.81      4.99      0.01         0.01
  HDR_4714                    0.01      0.01      5.61      0.01         0.01
  HDR_4715                    0.01      0.01      7.46      0.01         0.01
  HDR_4734                    0.01      0.01     10.95      0.01         0.01
  HDR_474                     0.01      0.01      6.78      0.01         0.01
  HDR_476                     5.25      5.25      6.60      0.01         0.01
  HDR_477                     4.07      4.07      5.15      0.01         0.01
  HDR_478                     0.01      0.01      3.92      0.01         0.01
  HDR_48                      4.23      4.23      4.99      0.01         0.01
  HDR_4810                   11.30     11.30     11.66      0.01         0.01
  HDR_4842                    0.01      0.01     11.59      0.01         0.01
  HDR_4937                    5.64      5.64      9.45      0.01         0.01
  HDR_5049                    0.96      0.96      8.09      0.01         0.01
  HDR_5050                    8.11      8.11      8.34      0.01         0.01
  HDR_5051                    8.38      8.38      8.57      0.01         0.01
  HDR_5052                    8.57      8.57      8.78      0.01         0.01
  HDR_5521                   11.00     11.00     11.61      0.01         0.01
  HDR_5522                    9.85      9.85     10.16      0.01         0.01
  HDR_5523                    9.51      9.51      9.82      0.01         0.01
  HDR_5524                    0.01      0.01      9.45      0.01         0.01
  HDR_5526                    0.01      0.01      9.53      0.01         0.01
  HDR_5563                    0.01      0.01      1.71      0.01         0.01
  HDR_5683                    3.60      3.60     11.07      0.01         0.01
  HDR_5684                    2.94      2.94      3.52      0.01         0.01
  HDR_5685                    2.43      2.43      2.88      0.01         0.01
  HDR_5694                    2.10      2.10      2.39      0.01         0.01
  HDR_5695                    0.01      0.01      0.04      0.01         0.01
  HDR_5725                    0.01      0.01      1.16      0.01         0.01
  HDR_5972                    0.34      0.34      0.79      0.01         0.01
  HDR_5973                    0.32      0.32      0.63      0.01         0.01
  HDR_6148                    0.01      0.01      5.66      0.01         0.01
  HDR_6168                    5.66      5.66     11.15      0.01         0.01
  HDR_6222                    0.01      0.01     11.23      0.01         0.01
  HDR_6226                    0.01      0.01     11.33      0.01         0.01
  HDR_6277                    0.01      0.01      5.55      0.01         0.01
  HDR_63                      0.01      0.01      9.94      0.01         0.01
  HDR_6355                    0.01      0.01      2.13      0.01         0.01
  HDR_6373                    0.01      0.01      2.78      0.01         0.01
  HDR_6376                    0.01      0.01      1.11      0.01         0.01
  HDR_6377                    1.31      1.31      4.00      0.01         0.01
  HDR_6378                    2.34      2.34      3.56      0.01         0.01
  HDR_6381                    3.37      3.37      5.60      0.01         0.01
  HDR_6382                    4.33      4.63      4.33      4.79         4.33
  HDR_6383                    3.26      3.26      4.20      0.01         0.01
  HDR_6395                    0.01      0.01     10.47      0.01         0.01
  HDR_64                      0.01      0.01      4.45      0.01         0.01
  HDR_6410                    0.01      0.01      1.85      0.01         0.01
  HDR_6413                    4.34      4.34      4.35      4.50         4.33
  HDR_6414                    4.37      4.37      4.40      4.29         4.23
  HDR_6417                    4.41      4.41      4.44      4.54         4.40
  HDR_6418                    4.46      4.46      4.59      4.55         4.44
  HDR_6420                    0.01      4.66      0.01      4.82         0.01
  HDR_6421                    0.01      0.01      0.01      4.97         0.01
  HDR_647                     0.01      0.01     11.47      0.01         0.01
  HDR_6473                    0.01      0.01      4.71      0.01         0.01
  HDR_6484                    0.01      0.01      0.01      3.90         0.01
  HDR_65                      0.01      0.01      2.69      0.01         0.01
  HDR_6564                    0.01      0.01      0.01      2.52         0.01
  HDR_6590                    5.09      5.09      5.56      0.01         0.01
  HDR_66                     10.62     10.62     11.00      0.01         0.01
  HDR_6610                    0.01      0.01      0.01      4.92         0.01
  HDR_6651                    0.01      0.01      0.01      4.02         0.01
  HDR_6757                   11.75     11.75     11.78      0.01         0.01
  HDR_6963                   11.37     11.37     11.45      0.01         0.01
  HDR_6995                    0.01      0.01      5.16      0.01         0.01
  HDR_7006                    0.01      0.01     11.23      0.01         0.01
  HDR_7054                    0.01      0.01     10.22      0.01         0.01
  HDR_7109                   11.63     11.63     11.76      0.01         0.01
  HDR_7237                    4.91      4.91      5.82      0.01         0.01
  HDR_7240                    0.01      0.01      5.79      0.01         0.01
  HDR_7339                    0.01      0.01      7.15      0.01         0.01
  HDR_7340                    0.01      0.01      3.43      0.01         0.01
  HDR_7341                    3.61      3.61      4.33      0.01         0.01
  HDR_7342                    4.33      4.33      4.77      0.01         0.01
  HDR_7343                    4.77      4.79      4.77      4.98         4.77
  HDR_7344                    4.74      4.77      4.74      4.96         4.74
  HDR_7345                    0.01      4.74      0.01      4.97         0.01
  HDR_7399                    0.01      0.01      5.32      0.01         0.01
  HDR_7448                    0.01      0.01     11.33      0.01         0.01
  HDR_7455                    6.16      6.16     10.75      0.01         0.01
  HDR_7536                   11.35     11.35     11.56      0.01         0.01
  HDR_7547                   10.64     10.64     11.01      0.01         0.01
  HDR_7597                    0.01      0.01     10.41      0.01         0.01
  HDR_7598                   10.85     10.85     11.69      0.01         0.01
  HDR_76                      0.01      0.01     11.36      0.01         0.01
  HDR_7638                    0.01      0.78      0.01      0.01         0.01
  HDR_7639                    0.01      0.01      0.78      0.01         0.01
  HDR_7641                    0.01      0.01      0.78      0.01         0.01
  HDR_7645                    0.01      0.01     11.61      0.01         0.01
  HDR_7651                    0.01      0.01      8.78      0.01         0.01
  HDR_7793                   11.36     11.36     11.50      0.01         0.01
  HDR_7794                    0.01      0.01     11.39      0.01         0.01
  HDR_7894                    0.01      0.01      0.82      0.01         0.01
  HDR_795                     0.01      0.01     11.54      0.01         0.01
  HDR_7972                   10.88     10.88     11.34      0.01         0.01
  HDR_7973                    9.92      9.92     11.44      0.01         0.01
  HDR_7984                    0.01      0.01      5.81      0.01         0.01
  HDR_8037                    0.01      0.01     10.79      0.01         0.01
  HDR_8147                    0.01      0.01     11.24      0.01         0.01
  HDR_8149                    0.01      0.01      5.27      0.01         0.01
  HDR_819                    11.64     11.64     11.78      0.01         0.01
  HDR_8203                   11.44     11.44     11.62      0.01         0.01
  HDR_8239                    0.01      0.01      0.01      1.81         0.01
  HDR_8240                    0.01      0.01      5.37      0.01         0.01
  HDR_831                     0.01      0.01     11.54      0.01         0.01
  HDR_8672                   10.08     10.08     11.49      0.01         0.01
  HDR_8673                    0.01      0.01     10.08      0.01         0.01
  HDR_8982                    0.01      0.01      4.23      0.01         0.01
  HDR_9023                    4.66      4.66     10.73      0.01         0.01
  HDR_9024                    0.01      0.01      4.66      0.01         0.01
  HDR_9060                    3.50      3.50      4.32      0.01         0.01
  HDR_9061                    1.98      1.98      3.49      0.01         0.01
  HDR_9067                    0.01      0.01      8.71      0.01         0.01
  HDR_9194                    0.01      0.01      7.09      0.01         0.01
  HDR_9196                    7.09      7.09     10.80      0.01         0.01
  HDR_9198                    0.01      0.01     10.80      0.01         0.01
  HDR_9228                    0.01      0.01      4.14      0.01         0.01
  HDR_9230                    0.01      0.01      4.20      0.01         0.01
  HDR_9231                    4.60      4.60     11.01      0.01         0.01
  HDR_926                     0.01      0.01     11.25      0.01         0.01
  HDR_9260                    0.01      0.01     11.39      0.01         0.01
  HDR_9272                    0.01      0.01      9.63      0.01         0.01
  HDR_9273                    9.63      9.63     11.34      0.01         0.01
  HDR_9292                    0.01      0.01     10.39      0.01         0.01
  HDR_9299                   11.23     11.23     11.59      0.01         0.01
  HDR_9316                    0.01      0.01     11.23      0.01         0.01
  HDR_9317                    0.01      0.01     10.70      0.01         0.01
  HDR_9321                    0.01      0.01      0.01     10.70         0.01
  HDR_9322                    0.01      0.01     11.02      0.01         0.01
  HDR_9327                    4.83      4.83      5.42      0.01         0.01
  HDR_9328                    5.42      5.42      5.65      0.01         0.01
  HDR_9335                    0.01      0.01      5.17      0.01         0.01
  HDR_9336                    5.17      5.17     11.25      0.01         0.01
  HDR_9339                    4.90      4.90     11.56      0.01         0.01
  HDR_9340                   11.57     11.57     11.60      0.01         0.01
  HDR_9344                   10.87     10.87     10.88      0.01         0.01
  HDR_9345                   10.88     10.88     11.24      0.01         0.01
  HDR_9366                    4.88      4.88      9.62      0.01         0.01
  HDR_9400                    8.12      8.12      9.79      0.01         0.01
  HDR_9401                   10.11     10.11     11.32      0.01         0.01
  HDR_9404                   11.11     11.11     11.59      0.01         0.01
  HDR_9417                    0.01      0.01      9.12      0.01         0.01
  HDR_9442                    6.56      6.56     11.27      0.01         0.01
  HDR_9443                   11.31     11.31     11.60      0.01         0.01
  HDR_9457                   10.01     10.01     10.32      0.01         0.01
  HDR_9466                    0.01      0.01      9.10      0.01         0.01
  HDR_9467                   10.40     10.40     11.35      0.01         0.01
  HDR_9468                   10.09     10.09     10.15      0.01         0.01
  HDR_9478                    0.01      0.01      5.73      0.01         0.01
  HDR_9519                    7.32      7.32      8.08      0.01         0.01
  HDR_9520                    8.36      8.36     10.24      0.01         0.01
  HDR_9521                    5.79      5.79      7.05      0.01         0.01
  HDR_9522                    0.01      0.01      5.78      0.01         0.01
  HDR_9523                    0.01      0.01      9.55      0.01         0.01
  HDR_9542                    6.44      6.44     10.79      0.01         0.01
  HDR_9550                    8.92      8.92     11.24      0.01         0.01
  HDR_9552                    1.90      1.90      4.44      0.01         0.01
  HDR_9579                    0.42      0.42      0.99      0.01         0.01
  HDR_9582                    0.01      0.01      4.83      0.01         0.01
  HDR_9603                    0.01      0.01      2.31      0.01         0.01
  HDR_9611                    7.61      7.61      7.90      0.01         0.01
  HDR_9612                    0.01      0.01      1.34      0.01         0.01
  HDR_9681                    9.76      9.76      9.98      0.01         0.01
  HDR_9682                   11.48     11.78     11.48     11.75        11.48
  HDR_969                     0.01      0.42      0.01      0.01         0.01
  HDR_97                      0.01      4.71      0.01      4.66         0.01
  HDR_971                     0.01      1.30      0.01      0.74         0.01
  HDR_972                     0.78      2.53      0.78      2.83         0.78
  HDR_973                     2.06      2.36      2.06      2.49         2.06
  HDR_974                     2.07      4.74      2.07      2.23         0.02
  HDR_975                     4.29      4.94      4.29      0.65         4.29
  HDR_976                     0.01      2.74      0.01      0.90         0.01
  HDR_977                     0.93      3.14      0.93      1.87         0.03
  HDR_979                     0.01      0.27      0.01      0.01         0.01
  HDR_980                     0.01      0.07      0.01      0.01         0.01
  HDR_981                     0.01      0.26      0.01      0.37         0.01
  HDR_982                     0.01      4.44      0.01      0.01         0.01
  HDR_983                     0.01      0.01      0.01      0.01         0.01
  HDR_984                     0.01      1.31      0.01      1.22         0.01
  HDR_987                     0.01      1.91      0.01      1.39         0.01
  HDR_988                     1.42      4.27      1.42      2.85         1.42
  HDR_992                     0.01      3.84      0.01      3.80         0.01
  HDR_996                     0.01     11.31      0.01      0.01         0.01
  HDR_997                     0.01     11.49      0.01     11.44         0.01
  HDR_998                     0.01      0.01      0.01      0.01         0.01
  HDR_999                     0.01      8.04      0.01      5.35         0.01
  
  
  ***************
  Pumping Summary
  ***************
  
  ---------------------------------------------------------------------------------------------------------
                                                  Min       Avg       Max     Total     Power    % Time Off
                        Percent   Number of      Flow      Flow      Flow    Volume     Usage    Pump Curve
  Pump                 Utilized   Start-Ups       GPM       GPM       GPM  10^6 gal     Kw-hr    Low   High
  ---------------------------------------------------------------------------------------------------------
  15000                   29.39          21      0.00    847.31   1931.63     0.180     31.92    0.0    0.0
  15002                    0.00           0      0.00      0.00      0.00     0.000      0.00    0.0    0.0
  

  Analysis begun on:  Fri Mar  6 13:43:46 2026
  Analysis ended on:  Fri Mar  6 14:01:39 2026
  Total elapsed time: 00:17:53