
  EPA STORM WATER MANAGEMENT MODEL - VERSION 5.2 (Build 5.2.4)
  ------------------------------------------------------------

  
  ERROR 235: invalid infiltration parameters at line 3284 of [INFIL] section:
  A-69-00-M1_C1_Ihgh 3.0        0.5        4         

  
  ERROR 235: invalid infiltration parameters at line 3285 of [INFIL] section:
  A-69-00-M1_C1_Ilow 3.0        0.5        4         

  
  ERROR 235: invalid infiltration parameters at line 3286 of [INFIL] section:
  A-69-00-M1_C1_Imed 3.0        0.5        4         

  
  ERROR 235: invalid infiltration parameters at line 3287 of [INFIL] section:
  A-69-00-M1_C1_Izero 3.0        0.5        4         

  
  ERROR 235: invalid infiltration parameters at line 3288 of [INFIL] section:
  A-69-00-M1_C1_Phgh 3.0        0.5        4         

  
  ERROR 235: invalid infiltration parameters at line 3289 of [INFIL] section:
  A-69-00-M1_C1_Plow 3.0        0.5        4         

  
  ERROR 235: invalid infiltration parameters at line 3290 of [INFIL] section:
  A-69-00-M1_C1_Pmed 3.0        0.5        4         

  
  ERROR 235: invalid infiltration parameters at line 3291 of [INFIL] section:
  A-69-00-M1_C1_Pzero 3.0        0.5        4         

  
  ERROR 235: invalid infiltration parameters at line 3292 of [INFIL] section:
  A-70-00-M1_C1_Ihgh 3.0        0.5        4         

  
  ERROR 235: invalid infiltration parameters at line 3293 of [INFIL] section:
  A-70-00-M1_C1_Ilow 3.0        0.5        4         

  
  ERROR 235: invalid infiltration parameters at line 3294 of [INFIL] section:
  A-70-00-M1_C1_Imed 3.0        0.5        4         

  
  ERROR 235: invalid infiltration parameters at line 3295 of [INFIL] section:
  A-70-00-M1_C1_Izero 3.0        0.5        4         

  
  ERROR 235: invalid infiltration parameters at line 3296 of [INFIL] section:
  A-70-00-M1_C1_Phgh 3.0        0.5        4         

  
  ERROR 235: invalid infiltration parameters at line 3297 of [INFIL] section:
  A-70-00-M1_C1_Plow 3.0        0.5        4         

  
  ERROR 235: invalid infiltration parameters at line 3298 of [INFIL] section:
  A-70-00-M1_C1_Pmed 3.0        0.5        4         

  
  ERROR 235: invalid infiltration parameters at line 3299 of [INFIL] section:
  A-70-00-M1_C1_Pzero 3.0        0.5        4         

  
  ERROR 235: invalid infiltration parameters at line 3300 of [INFIL] section:
  A-70-00-M1_OC1_Ihgh 3.0        0.5        4         

  
  ERROR 235: invalid infiltration parameters at line 3301 of [INFIL] section:
  A-70-00-M1_OC1_Ilow 3.0        0.5        4         

  
  ERROR 235: invalid infiltration parameters at line 3302 of [INFIL] section:
  A-70-00-M1_OC1_Imed 3.0        0.5        4         

  
  ERROR 235: invalid infiltration parameters at line 3303 of [INFIL] section:
  A-70-00-M1_OC1_Izero 3.0        0.5        4         

  
  ERROR 235: invalid infiltration parameters at line 3304 of [INFIL] section:
  A-70-00-M1_OC1_Phgh 3.0        0.5        4         

  
  ERROR 235: invalid infiltration parameters at line 3305 of [INFIL] section:
  A-70-00-M1_OC1_Plow 3.0        0.5        4         

  
  ERROR 235: invalid infiltration parameters at line 3306 of [INFIL] section:
  A-70-00-M1_OC1_Pmed 3.0        0.5        4         

  
  ERROR 235: invalid infiltration parameters at line 3307 of [INFIL] section:
  A-70-00-M1_OC1_Pzero 3.0        0.5        4         

  
  ERROR 235: invalid infiltration parameters at line 3308 of [INFIL] section:
  A-71-00-M1_C1_Ihgh 3.0        0.5        4         

  
  ERROR 235: invalid infiltration parameters at line 3309 of [INFIL] section:
  A-71-00-M1_C1_Ilow 3.0        0.5        4         

  
  ERROR 235: invalid infiltration parameters at line 3310 of [INFIL] section:
  A-71-00-M1_C1_Imed 3.0        0.5        4         

  
  ERROR 235: invalid infiltration parameters at line 3311 of [INFIL] section:
  A-71-00-M1_C1_Izero 3.0        0.5        4         

  
  ERROR 235: invalid infiltration parameters at line 3312 of [INFIL] section:
  A-71-00-M1_C1_Phgh 3.0        0.5        4         

  
  ERROR 235: invalid infiltration parameters at line 3313 of [INFIL] section:
  A-71-00-M1_C1_Plow 3.0        0.5        4         

  
  ERROR 235: invalid infiltration parameters at line 3314 of [INFIL] section:
  A-71-00-M1_C1_Pmed 3.0        0.5        4         

  
  ERROR 235: invalid infiltration parameters at line 3315 of [INFIL] section:
  A-71-00-M1_C1_Pzero 3.0        0.5        4         

  
  ERROR 235: invalid infiltration parameters at line 3316 of [INFIL] section:
  A-71-00-M1_OC1_Ihgh 3.0        0.5        4         

  
  ERROR 235: invalid infiltration parameters at line 3317 of [INFIL] section:
  A-71-00-M1_OC1_Ilow 3.0        0.5        4         

  
  ERROR 235: invalid infiltration parameters at line 3318 of [INFIL] section:
  A-71-00-M1_OC1_Imed 3.0        0.5        4         

  
  ERROR 235: invalid infiltration parameters at line 3319 of [INFIL] section:
  A-71-00-M1_OC1_Izero 3.0        0.5        4         

  
  ERROR 235: invalid infiltration parameters at line 3320 of [INFIL] section:
  A-71-00-M1_OC1_Phgh 3.0        0.5        4         

  
  ERROR 235: invalid infiltration parameters at line 3321 of [INFIL] section:
  A-71-00-M1_OC1_Plow 3.0        0.5        4         

  
  ERROR 235: invalid infiltration parameters at line 3322 of [INFIL] section:
  A-71-00-M1_OC1_Pmed 3.0        0.5        4         

  
  ERROR 235: invalid infiltration parameters at line 3323 of [INFIL] section:
  A-71-00-M1_OC1_Pzero 3.0        0.5        4         

  
  ERROR 235: invalid infiltration parameters at line 3324 of [INFIL] section:
  A-73-00-M1_C1_Ihgh 3.0        0.5        4         

  
  ERROR 235: invalid infiltration parameters at line 3325 of [INFIL] section:
  A-73-00-M1_C1_Ilow 3.0        0.5        4         

  
  ERROR 235: invalid infiltration parameters at line 3326 of [INFIL] section:
  A-73-00-M1_C1_Imed 3.0        0.5        4         

  
  ERROR 235: invalid infiltration parameters at line 3327 of [INFIL] section:
  A-73-00-M1_C1_Izero 3.0        0.5        4         

  
  ERROR 235: invalid infiltration parameters at line 3328 of [INFIL] section:
  A-73-00-M1_C1_Phgh 3.0        0.5        4         

  
  ERROR 235: invalid infiltration parameters at line 3329 of [INFIL] section:
  A-73-00-M1_C1_Plow 3.0        0.5        4         

  
  ERROR 235: invalid infiltration parameters at line 3330 of [INFIL] section:
  A-73-00-M1_C1_Pmed 3.0        0.5        4         

  
  ERROR 235: invalid infiltration parameters at line 3331 of [INFIL] section:
  A-73-00-M1_C1_Pzero 3.0        0.5        4         

  
  ERROR 235: invalid infiltration parameters at line 3332 of [INFIL] section:
  A-73-00-M1_OC1_Ihgh 3.0        0.5        4         

  
  ERROR 235: invalid infiltration parameters at line 3333 of [INFIL] section:
  A-73-00-M1_OC1_Ilow 3.0        0.5        4         

  
  ERROR 235: invalid infiltration parameters at line 3334 of [INFIL] section:
  A-73-00-M1_OC1_Imed 3.0        0.5        4         

  
  ERROR 235: invalid infiltration parameters at line 3335 of [INFIL] section:
  A-73-00-M1_OC1_Izero 3.0        0.5        4         

  
  ERROR 235: invalid infiltration parameters at line 3336 of [INFIL] section:
  A-73-00-M1_OC1_Phgh 3.0        0.5        4         

  
  ERROR 235: invalid infiltration parameters at line 3337 of [INFIL] section:
  A-73-00-M1_OC1_Plow 3.0        0.5        4         

  
  ERROR 235: invalid infiltration parameters at line 3338 of [INFIL] section:
  A-73-00-M1_OC1_Pmed 3.0        0.5        4         

  
  ERROR 235: invalid infiltration parameters at line 3339 of [INFIL] section:
  A-73-00-M1_OC1_Pzero 3.0        0.5        4         

  
  ERROR 235: invalid infiltration parameters at line 3340 of [INFIL] section:
  A-75-00-M1_C1_Ihgh 3.0        0.5        4         

  
  ERROR 235: invalid infiltration parameters at line 3341 of [INFIL] section:
  A-75-00-M1_C1_Ilow 3.0        0.5        4         

  
  ERROR 235: invalid infiltration parameters at line 3342 of [INFIL] section:
  A-75-00-M1_C1_Imed 3.0        0.5        4         

  
  ERROR 235: invalid infiltration parameters at line 3343 of [INFIL] section:
  A-75-00-M1_C1_Izero 3.0        0.5        4         

  
  ERROR 235: invalid infiltration parameters at line 3344 of [INFIL] section:
  A-75-00-M1_C1_Phgh 3.0        0.5        4         

  
  ERROR 235: invalid infiltration parameters at line 3345 of [INFIL] section:
  A-75-00-M1_C1_Plow 3.0        0.5        4         

  
  ERROR 235: invalid infiltration parameters at line 3346 of [INFIL] section:
  A-75-00-M1_C1_Pmed 3.0        0.5        4         

  
  ERROR 235: invalid infiltration parameters at line 3347 of [INFIL] section:
  A-75-00-M1_C1_Pzero 3.0        0.5        4         

  
  ERROR 235: invalid infiltration parameters at line 3348 of [INFIL] section:
  A-76-00-M1_C1_Ihgh 3.0        0.5        4         

  
  ERROR 235: invalid infiltration parameters at line 3349 of [INFIL] section:
  A-76-00-M1_C1_Ilow 3.0        0.5        4         

  
  ERROR 235: invalid infiltration parameters at line 3350 of [INFIL] section:
  A-76-00-M1_C1_Imed 3.0        0.5        4         

  
  ERROR 235: invalid infiltration parameters at line 3351 of [INFIL] section:
  A-76-00-M1_C1_Izero 3.0        0.5        4         

  
  ERROR 235: invalid infiltration parameters at line 3352 of [INFIL] section:
  A-76-00-M1_C1_Phgh 3.0        0.5        4         

  
  ERROR 235: invalid infiltration parameters at line 3353 of [INFIL] section:
  A-76-00-M1_C1_Plow 3.0        0.5        4         

  
  ERROR 235: invalid infiltration parameters at line 3354 of [INFIL] section:
  A-76-00-M1_C1_Pmed 3.0        0.5        4         

  
  ERROR 235: invalid infiltration parameters at line 3355 of [INFIL] section:
  A-76-00-M1_C1_Pzero 3.0        0.5        4         

  
  ERROR 235: invalid infiltration parameters at line 3356 of [INFIL] section:
  A-77-00-M1_C1_Ihgh 3.0        0.5        4         

  
  ERROR 235: invalid infiltration parameters at line 3357 of [INFIL] section:
  A-77-00-M1_C1_Ilow 3.0        0.5        4         

  
  ERROR 235: invalid infiltration parameters at line 3358 of [INFIL] section:
  A-77-00-M1_C1_Imed 3.0        0.5        4         

  
  ERROR 235: invalid infiltration parameters at line 3359 of [INFIL] section:
  A-77-00-M1_C1_Izero 3.0        0.5        4         

  
  ERROR 235: invalid infiltration parameters at line 3360 of [INFIL] section:
  A-77-00-M1_C1_Phgh 3.0        0.5        4         

  
  ERROR 235: invalid infiltration parameters at line 3361 of [INFIL] section:
  A-77-00-M1_C1_Plow 3.0        0.5        4         

  
  ERROR 235: invalid infiltration parameters at line 3362 of [INFIL] section:
  A-77-00-M1_C1_Pmed 3.0        0.5        4         

  
  ERROR 235: invalid infiltration parameters at line 3363 of [INFIL] section:
  A-77-00-M1_C1_Pzero 3.0        0.5        4         

  
  ERROR 235: invalid infiltration parameters at line 3364 of [INFIL] section:
  A35001_C1_Ihgh   3.0        0.5        4         

  
  ERROR 235: invalid infiltration parameters at line 3365 of [INFIL] section:
  A35001_C1_Ilow   3.0        0.5        4         

  
  ERROR 235: invalid infiltration parameters at line 3366 of [INFIL] section:
  A35001_C1_Imed   3.0        0.5        4         

  
  ERROR 235: invalid infiltration parameters at line 3367 of [INFIL] section:
  A35001_C1_Izero  3.0        0.5        4         

  
  ERROR 235: invalid infiltration parameters at line 3368 of [INFIL] section:
  A35001_C1_Phgh   3.0        0.5        4         

  
  ERROR 235: invalid infiltration parameters at line 3369 of [INFIL] section:
  A35001_C1_Plow   3.0        0.5        4         

  
  ERROR 235: invalid infiltration parameters at line 3370 of [INFIL] section:
  A35001_C1_Pmed   3.0        0.5        4         

  
  ERROR 235: invalid infiltration parameters at line 3371 of [INFIL] section:
  A35001_C1_Pzero  3.0        0.5        4         

  
  ERROR 235: invalid infiltration parameters at line 3372 of [INFIL] section:
  A37002_C1_Ihgh   3.0        0.5        4         

  
  ERROR 235: invalid infiltration parameters at line 3373 of [INFIL] section:
  A37002_C1_Ilow   3.0        0.5        4         

  
  ERROR 235: invalid infiltration parameters at line 3374 of [INFIL] section:
  A37002_C1_Imed   3.0        0.5        4         

  
  ERROR 235: invalid infiltration parameters at line 3375 of [INFIL] section:
  A37002_C1_Izero  3.0        0.5        4         

  
  ERROR 235: invalid infiltration parameters at line 3376 of [INFIL] section:
  A37002_C1_Phgh   3.0        0.5        4         

  
  ERROR 235: invalid infiltration parameters at line 3377 of [INFIL] section:
  A37002_C1_Plow   3.0        0.5        4         

  
  ERROR 235: invalid infiltration parameters at line 3378 of [INFIL] section:
  A37002_C1_Pmed   3.0        0.5        4         

  
  ERROR 235: invalid infiltration parameters at line 3379 of [INFIL] section:
  A37002_C1_Pzero  3.0        0.5        4         

  
  ERROR 235: invalid infiltration parameters at line 3380 of [INFIL] section:
  A41IN_C1_Ihgh    3.0        0.5        4         

  
  ERROR 235: invalid infiltration parameters at line 3381 of [INFIL] section:
  A41IN_C1_Ilow    3.0        0.5        4         

  
  ERROR 235: invalid infiltration parameters at line 3382 of [INFIL] section:
  A41IN_C1_Imed    3.0        0.5        4         

  
  ERROR 235: invalid infiltration parameters at line 3383 of [INFIL] section:
  A41IN_C1_Izero   3.0        0.5        4         

  
  Maximum error count exceeded.

  Analysis begun on:  Fri Mar  6 14:01:39 2026
  Analysis ended on:  Fri Mar  6 14:01:39 2026
  Total elapsed time: < 1 sec