
  EPA STORM WATER MANAGEMENT MODEL - VERSION 5.2 (Build 5.2.4)
  ------------------------------------------------------------

  
  ERROR 361: could not open external file used for Time Series EastWWTP_2012.
  
  ERROR 361: could not open external file used for Time Series Weinbach_2012.
  WARNING 02: maximum depth increased for Node BS2
  WARNING 02: maximum depth increased for Node BS5
  WARNING 02: maximum depth increased for Node BS6
  WARNING 02: maximum depth increased for Node DS_#10A

  Analysis begun on:  Fri Mar  6 14:01:46 2026
  Analysis ended on:  Fri Mar  6 14:01:46 2026
  Total elapsed time: < 1 sec