
  EPA STORM WATER MANAGEMENT MODEL - VERSION 5.2 (Build 5.2.4)
  ------------------------------------------------------------

  
  ****************
  Analysis Options
  ****************
  Flow Units ............... CFS
  Process Models:
    Rainfall/Runoff ........ YES
    RDII ................... NO
    Snowmelt ............... NO
    Groundwater ............ NO
    Flow Routing ........... NO
    Water Quality .......... NO
  Infiltration Method ...... HORTON
  Starting Date ............ 01/01/2002 00:00:00
  Ending Date .............. 01/02/2002 03:00:00
  Antecedent Dry Days ...... 5.0
  Report Time Step ......... 00:01:00
  Wet Time Step ............ 00:01:00
  Dry Time Step ............ 00:01:00
  
  
  **************************        Volume         Depth
  Runoff Quantity Continuity     acre-feet        inches
  **************************     ---------       -------
  Total Precipitation ......         4.334         9.986
  Evaporation Loss .........         0.000         0.000
  Infiltration Loss ........         0.620         1.429
  Surface Runoff ...........         3.633         8.372
  Final Storage ............         0.081         0.186
  Continuity Error (%) .....        -0.011
  
  
  **************************        Volume        Volume
  Flow Routing Continuity        acre-feet      10^6 gal
  **************************     ---------     ---------
  Dry Weather Inflow .......         0.000         0.000
  Wet Weather Inflow .......         3.633         1.184
  Groundwater Inflow .......         0.000         0.000
  RDII Inflow ..............         0.000         0.000
  External Inflow ..........         0.000         0.000
  External Outflow .........         3.633         1.184
  Flooding Loss ............         0.000         0.000
  Evaporation Loss .........         0.000         0.000
  Exfiltration Loss ........         0.000         0.000
  Initial Stored Volume ....         0.000         0.000
  Final Stored Volume ......         0.000         0.000
  Continuity Error (%) .....         0.000
  
  
  ***************************
  Subcatchment Runoff Summary
  ***************************
  
  ------------------------------------------------------------------------------------------------------------------------------
                            Total      Total      Total      Total     Imperv       Perv      Total       Total     Peak  Runoff
                           Precip      Runon       Evap      Infil     Runoff     Runoff     Runoff      Runoff   Runoff   Coeff
  Subcatchment                 in         in         in         in         in         in         in    10^6 gal      CFS
  ------------------------------------------------------------------------------------------------------------------------------
  SCS1A_10MINUTE            10.01       0.00       0.00       0.00       1.00       8.78       9.78        0.22     2.61   0.977
  SCS1A_15MINUTE            10.01       0.00       0.00       0.00       1.00       8.78       9.78        0.10     1.06   0.977
  SCS1A_1HOUR               10.01       0.00       0.00       0.00       1.00       8.78       9.78        0.14     0.75   0.977
  SCS1A_1MINUTE             10.01       0.00       0.00       0.00       1.00       8.78       9.78        0.15     2.48   0.977
  SCS1A_30MINUTE            10.01       0.00       0.00       0.00       1.00       8.78       9.78        0.09     0.67   0.977
  SCS1A_5MINUTE             10.01       0.00       0.00       0.00       1.00       8.78       9.78        0.25     2.55   0.977
  SCS3_5MINUTE              10.00       0.00       0.00       0.00       1.00       8.78       9.77        0.15     8.43   0.977
  SCSTY1_5MINUTE             9.90       0.00       0.00       7.15       0.99       1.76       2.75        0.08     8.07   0.278
  

  Analysis begun on:  Fri Mar  6 14:27:31 2026
  Analysis ended on:  Fri Mar  6 14:27:31 2026
  Total elapsed time: < 1 sec