
  EPA STORM WATER MANAGEMENT MODEL - VERSION 5.2 (Build 5.2.4)
  ------------------------------------------------------------

  
  ****************
  Analysis Options
  ****************
  Flow Units ............... LPS
  Process Models:
    Rainfall/Runoff ........ NO
    RDII ................... NO
    Snowmelt ............... NO
    Groundwater ............ NO
    Flow Routing ........... YES
    Ponding Allowed ........ NO
    Water Quality .......... NO
  Flow Routing Method ...... DYNWAVE
  Surcharge Method ......... EXTRAN
  Starting Date ............ 01/01/2002 00:00:00
  Ending Date .............. 01/01/2002 04:00:00
  Antecedent Dry Days ...... 5.0
  Report Time Step ......... 00:01:00
  Routing Time Step ........ 10.00 sec
  Variable Time Step ....... YES
  Maximum Trials ........... 8
  Number of Threads ........ 1
  Head Tolerance ........... 0.001524 m
  
  
  **************************        Volume        Volume
  Flow Routing Continuity        hectare-m      10^6 ltr
  **************************     ---------     ---------
  Dry Weather Inflow .......         0.000         0.000
  Wet Weather Inflow .......         0.000         0.000
  Groundwater Inflow .......         0.000         0.000
  RDII Inflow ..............         0.000         0.000
  External Inflow ..........         3.600        36.000
  External Outflow .........         2.384        23.841
  Flooding Loss ............         1.176        11.761
  Evaporation Loss .........         0.000         0.000
  Exfiltration Loss ........         0.000         0.000
  Initial Stored Volume ....         0.000         0.000
  Final Stored Volume ......         0.041         0.408
  Continuity Error (%) .....        -0.026
  
  
  *************************
  Highest Continuity Errors
  *************************
  Node 55 (2.89%)
  Node 44 (2.88%)
  
  
  ***************************
  Time-Step Critical Elements
  ***************************
  None
  
  
  ********************************
  Highest Flow Instability Indexes
  ********************************
  All links are stable.
  
  
  *********************************
  Most Frequent Nonconverging Nodes
  *********************************
  Node OUT1 (7.01%)
  Node OUT2 (7.01%)
  Node OUT3 (7.01%)
  Node OUT4 (7.01%)
  Node OUT5 (7.01%)
  
  
  *************************
  Routing Time Step Summary
  *************************
  Minimum Time Step           :     8.50 sec
  Average Time Step           :     9.99 sec
  Maximum Time Step           :    10.00 sec
  % of Time in Steady State   :     0.00
  Average Iterations per Step :     2.46
  % of Steps Not Converging   :     7.01
  Time Step Frequencies       :
     10.000 -  5.493 sec      :   100.00 %
      5.493 -  3.017 sec      :     0.00 %
      3.017 -  1.657 sec      :     0.00 %
      1.657 -  0.910 sec      :     0.00 %
      0.910 -  0.500 sec      :     0.00 %
  
  
  ******************
  Node Depth Summary
  ******************
  
  ---------------------------------------------------------------------------------
                                 Average  Maximum  Maximum  Time of Max    Reported
                                   Depth    Depth      HGL   Occurrence   Max Depth
  Node                 Type       Meters   Meters   Meters  days hr:min      Meters
  ---------------------------------------------------------------------------------
  1                    JUNCTION     0.27     0.51    10.51     0  01:11        0.51
  11                   JUNCTION     3.12     5.00    10.00     0  00:26        5.00
  111                  JUNCTION     0.19     0.25     2.75     0  01:13        0.25
  2                    JUNCTION     0.27     0.51    10.51     0  01:11        0.51
  22                   JUNCTION     3.01     5.00    10.00     0  00:27        5.00
  222                  JUNCTION     0.21     0.29     2.79     0  01:10        0.29
  3                    JUNCTION     0.27     0.51    10.51     0  01:11        0.51
  33                   JUNCTION     3.08     5.00    10.00     0  00:27        5.00
  333                  JUNCTION     0.19     0.26     2.76     0  01:14        0.26
  4                    JUNCTION     0.23     0.39    10.39     0  01:20        0.39
  44                   JUNCTION     1.18     1.45     6.45     0  01:23        1.45
  444                  JUNCTION     0.27     0.47     2.97     0  01:34        0.47
  5                    JUNCTION     0.23     0.39    10.39     0  01:20        0.39
  55                   JUNCTION     1.20     1.49     6.49     0  01:23        1.49
  555                  JUNCTION     0.27     0.47     2.97     0  01:37        0.47
  OUT1                 OUTFALL      0.19     0.25     0.25     0  01:14        0.25
  OUT2                 OUTFALL      0.21     0.29     0.29     0  01:10        0.29
  OUT3                 OUTFALL      0.19     0.26     0.26     0  01:15        0.26
  OUT4                 OUTFALL      0.26     0.47     0.47     0  01:34        0.47
  OUT5                 OUTFALL      0.26     0.47     0.47     0  01:36        0.47
  
  
  *******************
  Node Inflow Summary
  *******************
  
  -------------------------------------------------------------------------------------------------
                                  Maximum  Maximum                  Lateral       Total        Flow
                                  Lateral    Total  Time of Max      Inflow      Inflow     Balance
                                   Inflow   Inflow   Occurrence      Volume      Volume       Error
  Node                 Type           LPS      LPS  days hr:min    10^6 ltr    10^6 ltr     Percent
  -------------------------------------------------------------------------------------------------
  1                    JUNCTION   1000.00  1000.00     0  01:00         7.2         7.2      -0.145
  11                   JUNCTION      0.00  1000.01     0  01:13           0        7.21       0.168
  111                  JUNCTION      0.00   312.12     0  00:26           0        3.04       0.067
  2                    JUNCTION   1000.00  1000.00     0  01:00         7.2         7.2      -0.143
  22                   JUNCTION      0.00  1000.01     0  01:13           0        7.21       0.138
  222                  JUNCTION      0.00   397.41     0  00:27           0        3.73       0.024
  3                    JUNCTION   1000.00  1000.00     0  01:00         7.2         7.2      -0.146
  33                   JUNCTION      0.00  1000.01     0  01:13           0        7.21       0.129
  333                  JUNCTION      0.00   316.10     0  00:27           0        3.08       0.007
  4                    JUNCTION   1000.00  1000.00     0  01:00         7.2         7.2      -0.147
  44                   JUNCTION      0.00  1000.00     0  01:20           0        7.21       2.966
  444                  JUNCTION      0.00  1000.00     0  01:23           0           7       0.003
  5                    JUNCTION   1000.00  1000.00     0  01:00         7.2         7.2      -0.147
  55                   JUNCTION      0.00  1000.00     0  01:20           0        7.21       2.973
  555                  JUNCTION      0.00  1000.00     0  01:23           0           7       0.005
  OUT1                 OUTFALL       0.00   312.12     0  01:14           0        3.03       0.000
  OUT2                 OUTFALL       0.00   397.41     0  01:10           0        3.72       0.000
  OUT3                 OUTFALL       0.00   316.10     0  01:15           0        3.08       0.000
  OUT4                 OUTFALL       0.00  1000.00     0  01:34           0           7       0.000
  OUT5                 OUTFALL       0.00  1000.00     0  01:36           0           7       0.000
  
  
  **********************
  Node Surcharge Summary
  **********************
  
  Surcharging occurs when water rises above the top of the highest conduit.
  ---------------------------------------------------------------------
                                               Max. Height   Min. Depth
                                   Hours       Above Crown    Below Rim
  Node                 Type      Surcharged         Meters       Meters
  ---------------------------------------------------------------------
  11                   JUNCTION        2.50          4.000        0.000
  22                   JUNCTION        2.43          4.000        0.000
  33                   JUNCTION        2.47          4.000        0.000
  
  
  *********************
  Node Flooding Summary
  *********************
  
  Flooding refers to all water that overflows a node, whether it ponds or not.
  --------------------------------------------------------------------------
                                                             Total   Maximum
                                 Maximum   Time of Max       Flood    Ponded
                        Hours       Rate    Occurrence      Volume     Depth
  Node                 Flooded       LPS   days hr:min    10^6 ltr    Meters
  --------------------------------------------------------------------------
  11                      2.28    687.89      0  01:13       4.162     0.000
  22                      2.17    602.61      0  01:13       3.475     0.000
  33                      2.26    683.91      0  01:13       4.124     0.000
  
  
  ***********************
  Outfall Loading Summary
  ***********************
  
  -----------------------------------------------------------
                         Flow       Avg       Max       Total
                         Freq      Flow      Flow      Volume
  Outfall Node           Pcnt       LPS       LPS    10^6 ltr
  -----------------------------------------------------------
  OUT1                  98.82    213.08    312.12       3.034
  OUT2                  98.82    261.58    397.41       3.725
  OUT3                  99.10    215.46    316.10       3.077
  OUT4                  90.70    535.78   1000.00       7.003
  OUT5                  90.70    535.73   1000.00       7.002
  -----------------------------------------------------------
  System                95.63   1761.64   3025.62      23.841
  
  
  ********************
  Link Flow Summary
  ********************
  
  -----------------------------------------------------------------------------
                                 Maximum  Time of Max   Maximum    Max/    Max/
                                  |Flow|   Occurrence   |Veloc|    Full    Full
  Link                 Type          LPS  days hr:min     m/sec    Flow   Depth
  -----------------------------------------------------------------------------
  1                    CONDUIT   1000.01     0  01:13      1.96    0.32    0.76
  11                   CONDUIT    312.12     0  01:14      1.98    0.14    0.25
  2                    CONDUIT   1000.01     0  01:13      1.99    0.32    0.76
  22                   CONDUIT    397.41     0  01:10      2.13    0.18    0.29
  3                    CONDUIT   1000.01     0  01:13      2.06    0.32    0.76
  33                   CONDUIT    316.10     0  01:15      1.99    0.14    0.26
  4                    CONDUIT   1000.00     0  01:20      1.89    0.32    0.69
  44                   CONDUIT   1000.00     0  01:34      2.74    0.45    0.47
  5                    CONDUIT   1000.00     0  01:20      1.89    0.32    0.69
  55                   CONDUIT   1000.00     0  01:36      2.74    0.45    0.47
  ORF1                 ORIFICE    312.12     0  00:26                      1.00
  ORF2                 ORIFICE    397.41     0  00:27                      1.00
  ORF3                 ORIFICE    316.10     0  00:27                          
  WEIR1                WEIR      1000.00     0  01:23                      0.45
  WEIR2                WEIR      1000.00     0  01:23                      0.49
  
  
  ***************************
  Flow Classification Summary
  ***************************
  
  -------------------------------------------------------------------------------------
                      Adjusted    ---------- Fraction of Time in Flow Class ---------- 
                       /Actual         Up    Down  Sub   Sup   Up    Down  Norm  Inlet 
  Conduit               Length    Dry  Dry   Dry   Crit  Crit  Crit  Crit  Ltd   Ctrl  
  -------------------------------------------------------------------------------------
  1                       1.00   0.00  0.00  0.00  0.94  0.06  0.00  0.00  0.58  0.00
  11                      1.00   0.00  0.00  0.00  0.01  0.98  0.00  0.00  0.54  0.00
  2                       1.00   0.00  0.00  0.00  0.94  0.06  0.00  0.00  0.58  0.00
  22                      1.00   0.00  0.00  0.00  0.01  0.98  0.00  0.00  0.52  0.00
  3                       1.00   0.00  0.00  0.00  0.92  0.08  0.00  0.00  0.54  0.00
  33                      1.00   0.00  0.00  0.00  0.01  0.99  0.00  0.00  0.53  0.00
  4                       1.00   0.00  0.00  0.00  0.95  0.05  0.00  0.00  0.97  0.00
  44                      1.00   0.09  0.00  0.00  0.00  0.90  0.00  0.00  0.00  0.00
  5                       1.00   0.00  0.00  0.00  0.95  0.05  0.00  0.00  0.97  0.00
  55                      1.00   0.09  0.00  0.00  0.00  0.90  0.00  0.00  0.00  0.00
  
  
  *************************
  Conduit Surcharge Summary
  *************************
  
  ----------------------------------------------------------------------------
                                                           Hours        Hours 
                         --------- Hours Full --------   Above Full   Capacity
  Conduit                Both Ends  Upstream  Dnstream   Normal Flow   Limited
  ----------------------------------------------------------------------------
  1                           0.01      0.01      2.50      0.01         0.01
  2                           0.01      0.01      2.43      0.01         0.01
  3                           0.01      0.01      2.47      0.01         0.01
  4                           0.01      0.01      3.63      0.01         0.01
  5                           0.01      0.01      3.63      0.01         0.01
  

  Analysis begun on:  Fri Mar  6 14:27:25 2026
  Analysis ended on:  Fri Mar  6 14:27:25 2026
  Total elapsed time: < 1 sec