
  EPA STORM WATER MANAGEMENT MODEL - VERSION 5.2 (Build 5.2.4)
  ------------------------------------------------------------

  WARNING 04: minimum elevation drop used for Conduit 49
  WARNING 03: negative offset ignored for Link 50
  WARNING 04: minimum elevation drop used for Conduit 51
  WARNING 04: minimum elevation drop used for Conduit 52
  
  ****************
  Analysis Options
  ****************
  Flow Units ............... CMS
  Process Models:
    Rainfall/Runoff ........ YES
    RDII ................... NO
    Snowmelt ............... NO
    Groundwater ............ NO
    Flow Routing ........... YES
    Ponding Allowed ........ NO
    Water Quality .......... YES
  Infiltration Method ...... HORTON
  Flow Routing Method ...... DYNWAVE
  Surcharge Method ......... EXTRAN
  Starting Date ............ 01/01/2013 00:00:00
  Ending Date .............. 11/12/2013 00:00:00
  Antecedent Dry Days ...... 5.0
  Report Time Step ......... 00:00:00
  Wet Time Step ............ 00:01:00
  Dry Time Step ............ 01:00:00
  Routing Time Step ........ 60.00 sec
  Variable Time Step ....... YES
  Maximum Trials ........... 8
  Number of Threads ........ 1
  Head Tolerance ........... 0.001524 m
  
  
  **************************        Volume         Depth
  Runoff Quantity Continuity     hectare-m            mm
  **************************     ---------       -------
  Total Precipitation ......      2337.603       999.300
  Evaporation Loss .........         0.000         0.000
  Infiltration Loss ........       308.189       131.748
  Surface Runoff ...........      2029.341       867.521
  Final Storage ............         0.073         0.031
  Continuity Error (%) .....        -0.000
  
  
  **************************AmmonicalNitrogenNH3-NBiochemicalOxygenDemand(BOD)CalciumHardnessChemicaOxygenDemandCOD   ChorideasCL
  Runoff Quality Continuity             kg            kg            kg            kg            kg
  **************************    ----------    ----------    ----------    ----------    ----------
  Initial Buildup ..........         0.000         0.000         0.000         0.000         0.000
  Surface Buildup ..........     10981.830     10981.830     10981.830     10981.830     10981.830
  Wet Deposition ...........     23376.162     23376.162     23376.162     23376.162     23376.162
  Sweeping Removal .........         0.000         0.000         0.000         0.000         0.000
  Infiltration Loss ........      3081.911      3081.911      3081.911      3081.911      3081.911
  BMP Removal ..............         0.000         0.000         0.000         0.000         0.000
  Surface Runoff ...........     31064.714     31064.714     31064.714     31064.714     31064.714
  Remaining Buildup ........         0.732         0.732         0.732         0.732         0.732
  Continuity Error (%) .....         0.613         0.613         0.613         0.613         0.613
  
  
  **************************        Colour  ConductivityDissolvedPhosporus FecalColiformFlavourThresholdTest
  Runoff Quality Continuity             kg            kg            kg            kg            kg
  **************************    ----------    ----------    ----------    ----------    ----------
  Initial Buildup ..........         0.000         0.000         0.000         0.000         0.000
  Surface Buildup ..........        10.982     10981.830     10981.830        10.982        10.982
  Wet Deposition ...........        23.376     23376.162     23376.162        23.376        23.376
  Sweeping Removal .........         0.000         0.000         0.000         0.000         0.000
  Infiltration Loss ........         3.082      3081.911      3081.911         3.082         3.082
  BMP Removal ..............         0.000         0.000         0.000         0.000         0.000
  Surface Runoff ...........        31.065     31064.714     31064.714        31.065        31.065
  Remaining Buildup ........         0.001         0.732         0.732         0.001         0.001
  Continuity Error (%) .....         0.613         0.613         0.613         0.613         0.613
  
  
  **************************MagnesiumHardness          Odor    Oil&Grease            pH       Sulfide
  Runoff Quality Continuity             kg            kg            kg            kg            kg
  **************************    ----------    ----------    ----------    ----------    ----------
  Initial Buildup ..........         0.000         0.000         0.000         0.000         0.000
  Surface Buildup ..........     10981.830        10.982     10981.830     10981.830     10981.830
  Wet Deposition ...........     23376.162        23.376     23376.162     23376.162     23376.162
  Sweeping Removal .........         0.000         0.000         0.000         0.000         0.000
  Infiltration Loss ........      3081.911         3.082      3081.911      3081.911      3081.911
  BMP Removal ..............         0.000         0.000         0.000         0.000         0.000
  Surface Runoff ...........     31064.714        31.065     31064.714     31064.714     31064.714
  Remaining Buildup ........         0.732         0.001         0.732         0.732         0.732
  Continuity Error (%) .....         0.613         0.613         0.613         0.613         0.613
  
  
  ************************** TotalColiformTotalDissolvedSolids TotalHardness TotalNitrogenTotalPhosporus
  Runoff Quality Continuity           LogN            kg            kg            kg            kg
  **************************    ----------    ----------    ----------    ----------    ----------
  Initial Buildup ..........         0.000         0.000         0.000         0.000         0.000
  Surface Buildup ..........        10.041     10981.830     10981.830     10981.830     10981.830
  Wet Deposition ...........        10.369     23376.162     23376.162     23376.162     23376.162
  Sweeping Removal .........         0.000         0.000         0.000         0.000         0.000
  Infiltration Loss ........         9.489      3081.911      3081.911      3081.911      3081.911
  BMP Removal ..............         0.000         0.000         0.000         0.000         0.000
  Surface Runoff ...........        10.492     31064.714     31064.714     31064.714     31064.714
  Remaining Buildup ........         5.865         0.732         0.732         0.732         0.732
  Continuity Error (%) .....         0.613         0.613         0.613         0.613         0.613
  
  
  **************************   TotalSolidsTotalSuspendedSolids(TSS)     Turbidity
  Runoff Quality Continuity             kg            kg            kg
  **************************    ----------    ----------    ----------
  Initial Buildup ..........         0.000         0.000         0.000
  Surface Buildup ..........     10981.830     10981.830         0.000
  Wet Deposition ...........     23376.162     23376.162     23376.162
  Sweeping Removal .........         0.000         0.000         0.000
  Infiltration Loss ........      3081.911      3081.911      3081.911
  BMP Removal ..............         0.000         0.000         0.000
  Surface Runoff ...........     31064.714     31064.714     20082.884
  Remaining Buildup ........         0.732         0.732         0.732
  Continuity Error (%) .....         0.613         0.613         0.901
  
  
  **************************        Volume        Volume
  Flow Routing Continuity        hectare-m      10^6 ltr
  **************************     ---------     ---------
  Dry Weather Inflow .......         0.000         0.000
  Wet Weather Inflow .......      2029.348     20293.687
  Groundwater Inflow .......         0.000         0.000
  RDII Inflow ..............         0.000         0.000
  External Inflow ..........         0.000         0.000
  External Outflow .........      1333.644     13336.582
  Flooding Loss ............       695.731      6957.384
  Evaporation Loss .........         0.000         0.000
  Exfiltration Loss ........         0.000         0.000
  Initial Stored Volume ....         0.000         0.000
  Final Stored Volume ......         0.006         0.057
  Continuity Error (%) .....        -0.002
  
  
  **************************AmmonicalNitrogenNH3-NBiochemicalOxygenDemand(BOD)CalciumHardnessChemicaOxygenDemandCOD   ChorideasCL
  Quality Routing Continuity            kg            kg            kg            kg            kg
  **************************    ----------    ----------    ----------    ----------    ----------
  Dry Weather Inflow .......         0.000         0.000         0.000         0.000         0.000
  Wet Weather Inflow .......     31064.821     31064.821     31064.821     31064.821     31064.821
  Groundwater Inflow .......         0.000         0.000         0.000         0.000         0.000
  RDII Inflow ..............         0.000         0.000         0.000         0.000         0.000
  External Inflow ..........         0.000         0.000         0.000         0.000         0.000
  External Outflow .........     20532.049     20532.049     20532.049     20532.049     20532.049
  Flooding Loss ............     10532.984     10532.984     10532.984     10532.984     10532.984
  Exfiltration Loss ........         0.000         0.000         0.000         0.000         0.000
  Mass Reacted .............         0.000         0.000         0.000         0.000         0.000
  Initial Stored Mass ......         0.000         0.000         0.000         0.000         0.000
  Final Stored Mass ........         0.000         0.000         0.000         0.000         0.000
  Continuity Error (%) .....        -0.001        -0.001        -0.001        -0.001        -0.001
  
  
  **************************        Colour  ConductivityDissolvedPhosporus FecalColiformFlavourThresholdTest
  Quality Routing Continuity            kg            kg            kg            kg            kg
  **************************    ----------    ----------    ----------    ----------    ----------
  Dry Weather Inflow .......         0.000         0.000         0.000         0.000         0.000
  Wet Weather Inflow .......        31.065     31064.821     31064.821        31.065        31.065
  Groundwater Inflow .......         0.000         0.000         0.000         0.000         0.000
  RDII Inflow ..............         0.000         0.000         0.000         0.000         0.000
  External Inflow ..........         0.000         0.000         0.000         0.000         0.000
  External Outflow .........        20.532     20532.049     20532.049        20.532        20.532
  Flooding Loss ............        10.533     10532.984     10532.984        10.533        10.533
  Exfiltration Loss ........         0.000         0.000         0.000         0.000         0.000
  Mass Reacted .............         0.000         0.000         0.000         0.000         0.000
  Initial Stored Mass ......         0.000         0.000         0.000         0.000         0.000
  Final Stored Mass ........         0.000         0.000         0.000         0.000         0.000
  Continuity Error (%) .....        -0.001        -0.001        -0.001        -0.001        -0.001
  
  
  **************************MagnesiumHardness          Odor    Oil&Grease            pH       Sulfide
  Quality Routing Continuity            kg            kg            kg            kg            kg
  **************************    ----------    ----------    ----------    ----------    ----------
  Dry Weather Inflow .......         0.000         0.000         0.000         0.000         0.000
  Wet Weather Inflow .......     31064.821        31.065     31064.821     31064.821     31064.821
  Groundwater Inflow .......         0.000         0.000         0.000         0.000         0.000
  RDII Inflow ..............         0.000         0.000         0.000         0.000         0.000
  External Inflow ..........         0.000         0.000         0.000         0.000         0.000
  External Outflow .........     20532.049        20.532     20532.049     20532.049     20532.049
  Flooding Loss ............     10532.984        10.533     10532.984     10532.984     10532.984
  Exfiltration Loss ........         0.000         0.000         0.000         0.000         0.000
  Mass Reacted .............         0.000         0.000         0.000         0.000         0.000
  Initial Stored Mass ......         0.000         0.000         0.000         0.000         0.000
  Final Stored Mass ........         0.000         0.000         0.000         0.000         0.000
  Continuity Error (%) .....        -0.001        -0.001        -0.001        -0.001        -0.001
  
  
  ************************** TotalColiformTotalDissolvedSolids TotalHardness TotalNitrogenTotalPhosporus
  Quality Routing Continuity          LogN            kg            kg            kg            kg
  **************************    ----------    ----------    ----------    ----------    ----------
  Dry Weather Inflow .......         0.000         0.000         0.000         0.000         0.000
  Wet Weather Inflow .......        10.492     31064.821     31064.821     31064.821     31064.821
  Groundwater Inflow .......         0.000         0.000         0.000         0.000         0.000
  RDII Inflow ..............         0.000         0.000         0.000         0.000         0.000
  External Inflow ..........         0.000         0.000         0.000         0.000         0.000
  External Outflow .........        10.312     20532.049     20532.049     20532.049     20532.049
  Flooding Loss ............        10.023     10532.984     10532.984     10532.984     10532.984
  Exfiltration Loss ........         0.000         0.000         0.000         0.000         0.000
  Mass Reacted .............         0.000         0.000         0.000         0.000         0.000
  Initial Stored Mass ......         0.000         0.000         0.000         0.000         0.000
  Final Stored Mass ........        -0.834         0.000         0.000         0.000         0.000
  Continuity Error (%) .....        -0.001        -0.001        -0.001        -0.001        -0.001
  
  
  **************************   TotalSolidsTotalSuspendedSolids(TSS)     Turbidity
  Quality Routing Continuity            kg            kg            kg
  **************************    ----------    ----------    ----------
  Dry Weather Inflow .......         0.000         0.000         0.000
  Wet Weather Inflow .......     31064.821     31064.821     20082.953
  Groundwater Inflow .......         0.000         0.000         0.000
  RDII Inflow ..............         0.000         0.000         0.000
  External Inflow ..........         0.000         0.000         0.000
  External Outflow .........     20532.049     20532.049     13126.022
  Flooding Loss ............     10532.984     10532.984      6957.301
  Exfiltration Loss ........         0.000         0.000         0.000
  Mass Reacted .............         0.000         0.000         0.000
  Initial Stored Mass ......         0.000         0.000         0.000
  Final Stored Mass ........         0.000         0.000         0.000
  Continuity Error (%) .....        -0.001        -0.001        -0.002
  
  
  ***************************
  Time-Step Critical Elements
  ***************************
  Link 53 (6.25%)
  Link 49 (2.88%)
  
  
  ********************************
  Highest Flow Instability Indexes
  ********************************
  All links are stable.
  
  
  *********************************
  Most Frequent Nonconverging Nodes
  *********************************
  Convergence obtained at all time steps.
  
  
  *************************
  Routing Time Step Summary
  *************************
  Minimum Time Step           :     1.85 sec
  Average Time Step           :    58.20 sec
  Maximum Time Step           :    60.00 sec
  % of Time in Steady State   :     0.00
  Average Iterations per Step :     2.00
  % of Steps Not Converging   :     0.00
  Time Step Frequencies       :
     60.000 - 23.031 sec      :    98.12 %
     23.031 -  8.841 sec      :     1.86 %
      8.841 -  3.393 sec      :     0.03 %
      3.393 -  1.303 sec      :     0.00 %
      1.303 -  0.500 sec      :     0.00 %
  
  
  ***************************
  Subcatchment Runoff Summary
  ***************************
  
  ------------------------------------------------------------------------------------------------------------------------------
                            Total      Total      Total      Total     Imperv       Perv      Total       Total     Peak  Runoff
                           Precip      Runon       Evap      Infil     Runoff     Runoff     Runoff      Runoff   Runoff   Coeff
  Subcatchment                 mm         mm         mm         mm         mm         mm         mm    10^6 ltr      CMS
  ------------------------------------------------------------------------------------------------------------------------------
  Thaltej                  999.30       0.00       0.00     147.13     664.61     187.54     852.14     3865.26     6.70   0.853
  Bodakdev                 999.30       0.00       0.00     191.69     584.27     223.32     807.58     5314.64     9.65   0.808
  Memnagar                 999.30       0.00       0.00      45.75     887.14      66.38     953.52     1283.45     2.03   0.954
  Vastrapur                999.30       0.00       0.00      64.30     843.08      91.89     934.97     1077.74     1.73   0.936
  Prahladnagar             999.30       0.00       0.00      89.90     795.70     113.66     909.37     7300.52    12.01   0.910
  Makarba                  999.30       0.00       0.00     169.04     617.04     213.19     830.23     1451.92     2.57   0.831
  
  
  ****************************
  Subcatchment Washoff Summary
  ****************************
  
  ------------------------------------------------------------------------------------------------------------------------------------------------------------------------------------------------------------------------------------------------------------------------------------------------------------------------------------------------------
                      AmmonicalNitrogenNH3-NBiochemicalOxygenDemand(BOD)CalciumHardnessChemicaOxygenDemandCOD   ChorideasCL        Colour  ConductivityDissolvedPhosporus FecalColiformFlavourThresholdTestMagnesiumHardness          Odor    Oil&Grease            pH       Sulfide TotalColiformTotalDissolvedSolids TotalHardness TotalNitrogenTotalPhosporus   TotalSolidsTotalSuspendedSolids(TSS)     Turbidity
  Subcatchment                    kg            kg            kg            kg            kg            kg            kg            kg            kg            kg            kg            kg            kg            kg            kg          LogN            kg            kg            kg            kg            kg            kg            kg
  ------------------------------------------------------------------------------------------------------------------------------------------------------------------------------------------------------------------------------------------------------------------------------------------------------------------------------------------------------
  Thaltej                   5809.183      5809.183      5809.183      5809.183      5809.183         5.809      5809.183      5809.183         5.809         5.809      5809.183         5.809      5809.183      5809.183      5809.183         9.764      5809.183      5809.183      5809.183      5809.183      5809.183      5809.183      3826.614
  Bodakdev                  7452.278      7452.278      7452.278      7452.278      7452.278         7.452      7452.278      7452.278         7.452         7.452      7452.278         7.452      7452.278      7452.278      7452.278         9.872      7452.278      7452.278      7452.278      7452.278      7452.278      7452.278      5254.003
  Memnagar                  2219.400      2219.400      2219.400      2219.400      2219.400         2.219      2219.400      2219.400         2.219         2.219      2219.400         2.219      2219.400      2219.400      2219.400         9.346      2219.400      2219.400      2219.400      2219.400      2219.400      2219.400      1274.272
  Vastrapur                 1803.055      1803.055      1803.055      1803.055      1803.055         1.803      1803.055      1803.055         1.803         1.803      1803.055         1.803      1803.055      1803.055      1803.055         9.256      1803.055      1803.055      1803.055      1803.055      1803.055      1803.055      1069.681
  Prahladnagar             11812.101     11812.101     11812.101     11812.101     11812.101        11.812     11812.101     11812.101        11.812        11.812     11812.101        11.812     11812.101     11812.101     11812.101        10.072     11812.101     11812.101     11812.101     11812.101     11812.101     11812.101      7220.993
  Makarba                   1968.698      1968.698      1968.698      1968.698      1968.698         1.969      1968.698      1968.698         1.969         1.969      1968.698         1.969      1968.698      1968.698      1968.698         9.294      1968.698      1968.698      1968.698      1968.698      1968.698      1968.698      1437.320
  ------------------------------------------------------------------------------------------------------------------------------------------------------------------------------------------------------------------------------------------------------------------------------------------------------------------------------------------------------
  System                   31064.714     31064.714     31064.714     31064.714     31064.714        31.065     31064.714     31064.714        31.065        31.065     31064.714        31.065     31064.714     31064.714     31064.714        10.492     31064.714     31064.714     31064.714     31064.714     31064.714     31064.714     20082.884
  
  
  ******************
  Node Depth Summary
  ******************
  
  ---------------------------------------------------------------------------------
                                 Average  Maximum  Maximum  Time of Max    Reported
                                   Depth    Depth      HGL   Occurrence   Max Depth
  Node                 Type       Meters   Meters   Meters  days hr:min      Meters
  ---------------------------------------------------------------------------------
  26                   OUTFALL      0.00     0.00    35.53     0  00:00        0.00
  Thaltej_Lake         STORAGE      0.27     4.00    50.60   167  07:04        4.00
  Memnagar_Lake        STORAGE      0.27     3.00    49.36   167  05:58        3.00
  Vastrapur_Lake       STORAGE      0.20     1.73    47.72   185  23:46        1.73
  Bodakdev_Lake        STORAGE      0.20     1.00    45.66   165  03:55        1.00
  Prahladnagar_Lake    STORAGE      0.29     3.00    41.91   185  04:17        3.00
  Sarkhej_Lake         STORAGE      0.17     2.50    39.93   185  04:51        2.50
  
  
  *******************
  Node Inflow Summary
  *******************
  
  -------------------------------------------------------------------------------------------------
                                  Maximum  Maximum                  Lateral       Total        Flow
                                  Lateral    Total  Time of Max      Inflow      Inflow     Balance
                                   Inflow   Inflow   Occurrence      Volume      Volume       Error
  Node                 Type           CMS      CMS  days hr:min    10^6 ltr    10^6 ltr     Percent
  -------------------------------------------------------------------------------------------------
  26                   OUTFALL      0.000   13.828   185  05:12           0    1.33e+04       0.000
  Thaltej_Lake         STORAGE      6.704    6.704   186  00:00    3.87e+03    3.87e+03      -0.001
  Memnagar_Lake        STORAGE      2.031    4.853   185  23:39    1.28e+03    4.69e+03      -0.009
  Vastrapur_Lake       STORAGE      1.732    4.975   185  23:53    1.08e+03     5.5e+03       0.002
  Bodakdev_Lake        STORAGE      9.652   14.627   186  00:00    5.31e+03    1.08e+04      -0.000
  Prahladnagar_Lake    STORAGE     12.011   13.733   186  00:00     7.3e+03     1.2e+04      -0.000
  Sarkhej_Lake         STORAGE      2.573   14.008   186  00:00    1.45e+03    1.33e+04      -0.000
  
  
  **********************
  Node Surcharge Summary
  **********************
  
  No nodes were surcharged.
  
  
  *********************
  Node Flooding Summary
  *********************
  
  Flooding refers to all water that overflows a node, whether it ponds or not.
  --------------------------------------------------------------------------
                                                             Total   Maximum
                                 Maximum   Time of Max       Flood    Ponded
                        Hours       Rate    Occurrence      Volume     Depth
  Node                 Flooded       CMS   days hr:min    10^6 ltr    Meters
  --------------------------------------------------------------------------
  Thaltej_Lake          103.14     3.881    186  00:00     460.911     0.000
  Memnagar_Lake         105.46     1.611    185  23:47     267.024     0.000
  Bodakdev_Lake         454.89    12.906    186  00:00    6066.560     0.000
  Prahladnagar_Lake      20.08     2.298    186  00:00     151.483     0.000
  Sarkhej_Lake           19.24     0.180    186  00:00      11.468     0.000
  
  
  **********************
  Storage Volume Summary
  **********************
  
  ------------------------------------------------------------------------------------------------
                         Average    Avg   Evap  Exfil     Maximum    Max    Time of Max    Maximum
                          Volume   Pcnt   Pcnt   Pcnt      Volume   Pcnt     Occurrence    Outflow
  Storage Unit           1000 mł   Full   Loss   Loss     1000 mł   Full    days hr:min        CMS
  ------------------------------------------------------------------------------------------------
  Thaltej_Lake             0.272    6.8    0.0    0.0       4.000  100.0     167  07:04      2.897
  Memnagar_Lake            0.272    9.1    0.0    0.0       3.000  100.0     167  05:58      3.549
  Vastrapur_Lake           0.201    5.0    0.0    0.0       1.734   43.4     185  23:46      4.975
  Bodakdev_Lake            0.201   20.1    0.0    0.0       1.000  100.0     165  03:55      1.722
  Prahladnagar_Lake        0.088    4.1    0.0    0.0       2.147  100.0     185  04:17     11.435
  Sarkhej_Lake             0.171    6.8    0.0    0.0       2.500  100.0     185  04:51     13.828
  
  
  ***********************
  Outfall Loading Summary
  ***********************
  
  ---------------------------------------------------------------------------------------------------------------------------------------------------------------------------------------------------------------------------------------------------------------------------------------------------------------------------------------------------------------------------------------------
                         Flow       Avg       Max       Total         Total         Total         Total         Total         Total         Total         Total         Total         Total         Total         Total         Total         Total         Total         Total         Total         Total         Total         Total         Total         Total         Total         Total
                         Freq      Flow      Flow      VolumeAmmonicalNitrogenNH3-NBiochemicalOxygenDemand(BOD)CalciumHardnessChemicaOxygenDemandCOD   ChorideasCL        Colour  ConductivityDissolvedPhosporus FecalColiformFlavourThresholdTestMagnesiumHardness          Odor    Oil&Grease            pH       Sulfide TotalColiformTotalDissolvedSolids TotalHardness TotalNitrogenTotalPhosporus   TotalSolidsTotalSuspendedSolids(TSS)     Turbidity
  Outfall Node           Pcnt       CMS       CMS    10^6 ltr            kg            kg            kg            kg            kg            kg            kg            kg            kg            kg            kg            kg            kg            kg            kg          LogN            kg            kg            kg            kg            kg            kg            kg
  ---------------------------------------------------------------------------------------------------------------------------------------------------------------------------------------------------------------------------------------------------------------------------------------------------------------------------------------------------------------------------------------------
  26                    68.05     1.049    13.828   13336.520     20532.088     20532.088     20532.088     20532.088     20532.088        20.532     20532.088     20532.088        20.532        20.532     20532.088        20.532     20532.088     20532.088     20532.088        10.312     20532.088     20532.088     20532.088     20532.088     20532.088     20532.088     13126.047
  ---------------------------------------------------------------------------------------------------------------------------------------------------------------------------------------------------------------------------------------------------------------------------------------------------------------------------------------------------------------------------------------------
  System                68.05     1.049    13.828   13336.520     20532.088     20532.088     20532.088     20532.088     20532.088        20.532     20532.088     20532.088        20.532        20.532     20532.088        20.532     20532.088     20532.088     20532.088        10.312     20532.088     20532.088     20532.088     20532.088     20532.088     20532.088     13126.047
  
  
  ********************
  Link Flow Summary
  ********************
  
  -----------------------------------------------------------------------------
                                 Maximum  Time of Max   Maximum    Max/    Max/
                                  |Flow|   Occurrence   |Veloc|    Full    Full
  Link                 Type          CMS  days hr:min     m/sec    Flow   Depth
  -----------------------------------------------------------------------------
  48                   CONDUIT     2.897   186  01:12      2.56    2.33    1.00
  49                   CONDUIT     3.549   186  01:05      3.15   80.21    1.00
  50                   CONDUIT     4.975   185  23:47      2.31    7.02    0.79
  51                   CONDUIT     1.722   167  06:08      1.53   13.20    0.45
  52                   CONDUIT    11.435   185  04:52      3.82   66.18    0.91
  53                   CONDUIT    13.828   185  05:12      4.51    1.29    0.94
  
  
  ***************************
  Flow Classification Summary
  ***************************
  
  -------------------------------------------------------------------------------------
                      Adjusted    ---------- Fraction of Time in Flow Class ---------- 
                       /Actual         Up    Down  Sub   Sup   Up    Down  Norm  Inlet 
  Conduit               Length    Dry  Dry   Dry   Crit  Crit  Crit  Crit  Ltd   Ctrl  
  -------------------------------------------------------------------------------------
  48                      1.00   0.31  0.00  0.00  0.69  0.00  0.00  0.00  0.56  0.00
  49                      1.00   0.31  0.00  0.00  0.03  0.00  0.00  0.65  0.00  0.00
  50                      1.00   0.31  0.00  0.00  0.00  0.00  0.00  0.69  0.00  0.00
  51                      1.00   0.31  0.00  0.00  0.00  0.00  0.00  0.69  0.00  0.00
  52                      1.00   0.31  0.00  0.00  0.00  0.00  0.00  0.69  0.00  0.00
  53                      1.00   0.31  0.00  0.00  0.00  0.00  0.00  0.69  0.00  0.00
  
  
  *************************
  Conduit Surcharge Summary
  *************************
  
  ----------------------------------------------------------------------------
                                                           Hours        Hours 
                         --------- Hours Full --------   Above Full   Capacity
  Conduit                Both Ends  Upstream  Dnstream   Normal Flow   Limited
  ----------------------------------------------------------------------------
  48                        292.72    292.72    299.91    272.60       272.57
  49                         66.49    299.91     66.49   1438.46        66.49
  50                          0.01      0.01      0.01    552.86         0.01
  51                          0.01      0.01      0.01   1346.86         0.01
  52                          0.01     89.33      0.01   1470.59         0.01
  53                          0.01     21.10      0.01     22.08         0.01
  
  
  ***************************
  Link Pollutant Load Summary
  ***************************
  
  ------------------------------------------------------------------------------------------------------------------------------------------------------------------------------------------------------------------------------------------------------------------------------------------------------------------------------------------------------
                      AmmonicalNitrogenNH3-NBiochemicalOxygenDemand(BOD)CalciumHardnessChemicaOxygenDemandCOD   ChorideasCL        Colour  ConductivityDissolvedPhosporus FecalColiformFlavourThresholdTestMagnesiumHardness          Odor    Oil&Grease            pH       Sulfide TotalColiformTotalDissolvedSolids TotalHardness TotalNitrogenTotalPhosporus   TotalSolidsTotalSuspendedSolids(TSS)     Turbidity
  Link                            kg            kg            kg            kg            kg            kg            kg            kg            kg            kg            kg            kg            kg            kg            kg          LogN            kg            kg            kg            kg            kg            kg            kg
  ------------------------------------------------------------------------------------------------------------------------------------------------------------------------------------------------------------------------------------------------------------------------------------------------------------------------------------------------------
  48                        5109.843      5109.843      5109.843      5109.843      5109.843         5.110      5109.843      5109.843         5.110         5.110      5109.843         5.110      5109.843      5109.843      5109.843         9.708      5109.843      5109.843      5109.843      5109.843      5109.843      5109.843      3365.946
  49                        6903.708      6903.708      6903.708      6903.708      6903.708         6.904      6903.708      6903.708         6.904         6.904      6903.708         6.904      6903.708      6903.708      6903.708         9.839      6903.708      6903.708      6903.708      6903.708      6903.708      6903.708      4373.683
  50                        8706.560      8706.560      8706.560      8706.560      8706.560         8.707      8706.560      8706.560         8.707         8.707      8706.560         8.707      8706.560      8706.560      8706.560         9.940      8706.560      8706.560      8706.560      8706.560      8706.560      8706.560      5443.257
  51                        7014.532      7014.532      7014.532      7014.532      7014.532         7.015      7014.532      7014.532         7.015         7.015      7014.532         7.015      7014.532      7014.532      7014.532         9.846      7014.532      7014.532      7014.532      7014.532      7014.532      7014.532      4630.773
  52                       1.858e+04     1.858e+04     1.858e+04     1.858e+04     1.858e+04        18.581     1.858e+04     1.858e+04        18.581        18.581     1.858e+04        18.581     1.858e+04     1.858e+04     1.858e+04        10.269     1.858e+04     1.858e+04     1.858e+04     1.858e+04     1.858e+04     1.858e+04     1.170e+04
  53                       2.053e+04     2.053e+04     2.053e+04     2.053e+04     2.053e+04        20.532     2.053e+04     2.053e+04        20.532        20.532     2.053e+04        20.532     2.053e+04     2.053e+04     2.053e+04        10.312     2.053e+04     2.053e+04     2.053e+04     2.053e+04     2.053e+04     2.053e+04     1.313e+04
  

  Analysis begun on:  Fri Mar  6 14:27:25 2026
  Analysis ended on:  Fri Mar  6 14:27:31 2026
  Total elapsed time: 00:00:06