
  EPA STORM WATER MANAGEMENT MODEL - VERSION 5.2 (Build 5.2.4)
  ------------------------------------------------------------

    Input and Output FilesSW 1 0 20 
  WARNING 04: minimum elevation drop used for Conduit pipe1
  WARNING 04: minimum elevation drop used for Conduit pipe2
  WARNING 04: minimum elevation drop used for Conduit pipe3
  WARNING 04: minimum elevation drop used for Conduit pipe4
  WARNING 04: minimum elevation drop used for Conduit pipe5
  WARNING 04: minimum elevation drop used for Conduit pipe6
  WARNING 04: minimum elevation drop used for Conduit pipe7
  WARNING 04: minimum elevation drop used for Conduit pipe8
  WARNING 04: minimum elevation drop used for Conduit pipe9
  WARNING 04: minimum elevation drop used for Conduit pip10
  WARNING 04: minimum elevation drop used for Conduit pip11
  WARNING 04: minimum elevation drop used for Conduit pip12
  WARNING 04: minimum elevation drop used for Conduit pip13
  WARNING 04: minimum elevation drop used for Conduit pip14
  WARNING 04: minimum elevation drop used for Conduit pip15
  WARNING 04: minimum elevation drop used for Conduit pip16
  WARNING 04: minimum elevation drop used for Conduit pip17
  WARNING 04: minimum elevation drop used for Conduit pip18
  WARNING 04: minimum elevation drop used for Conduit pip19
  WARNING 04: minimum elevation drop used for Conduit pip20
  WARNING 04: minimum elevation drop used for Conduit outlet
  WARNING 04: minimum elevation drop used for Conduit pipe1a
  WARNING 04: minimum elevation drop used for Conduit pipe2a
  WARNING 04: minimum elevation drop used for Conduit pipe3a
  WARNING 04: minimum elevation drop used for Conduit pipe4a
  WARNING 04: minimum elevation drop used for Conduit pipe5a
  WARNING 04: minimum elevation drop used for Conduit pipe6a
  WARNING 04: minimum elevation drop used for Conduit pipe7a
  WARNING 04: minimum elevation drop used for Conduit pipe8a
  WARNING 04: minimum elevation drop used for Conduit pipe9a
  WARNING 04: minimum elevation drop used for Conduit pip10a
  WARNING 04: minimum elevation drop used for Conduit pip11a
  WARNING 04: minimum elevation drop used for Conduit pip12a
  WARNING 04: minimum elevation drop used for Conduit pip13a
  WARNING 04: minimum elevation drop used for Conduit pip14a
  WARNING 04: minimum elevation drop used for Conduit pip15a
  WARNING 04: minimum elevation drop used for Conduit pip16a
  WARNING 04: minimum elevation drop used for Conduit pip17a
  WARNING 04: minimum elevation drop used for Conduit pip18a
  WARNING 04: minimum elevation drop used for Conduit pip19a
  WARNING 04: minimum elevation drop used for Conduit pip20a
  WARNING 04: minimum elevation drop used for Conduit outleta
  
  *************
  Element Count
  *************
  Number of rain gages ...... 0
  Number of subcatchments ... 0
  Number of nodes ........... 66
  Number of links ........... 63
  Number of pollutants ...... 1
  Number of land uses ....... 0
  
  
  *****************
  Pollutant Summary
  *****************
                               Ppt.      GW         Kdecay
  Name                 Units   Concen.   Concen.    1/days    CoPollutant
  -----------------------------------------------------------------------
  nda                   MG/L      0.00      0.00      0.00
  
  
  ************
  Node Summary
  ************
                                           Invert      Max.    Ponded    External
  Name                 Type                 Elev.     Depth      Area    Inflow  
  -------------------------------------------------------------------------------
  Inflow               JUNCTION             10.00     10.00       0.0    Yes
  Inflowa              JUNCTION             10.00     10.00       0.0    Yes
  Inflowb              JUNCTION             10.00     10.00       0.0    Yes
  mid1                 JUNCTION             10.00     10.00       0.0
  mid10                JUNCTION             10.00     10.00       0.0
  mid10a               JUNCTION             10.00     10.00       0.0
  mid10b               JUNCTION             10.10      9.90       0.0
  mid11                JUNCTION             10.00     10.00       0.0
  mid11a               JUNCTION             10.00     10.00       0.0
  mid11b               JUNCTION             10.11      9.89       0.0
  mid12                JUNCTION             10.00     10.00       0.0
  mid12a               JUNCTION             10.00     10.00       0.0
  mid12b               JUNCTION             10.12      9.88       0.0
  mid13                JUNCTION             10.00     10.00       0.0
  mid13a               JUNCTION             10.00     10.00       0.0
  mid13b               JUNCTION             10.13      9.87       0.0
  mid14                JUNCTION             10.00     10.00       0.0
  mid14a               JUNCTION             10.00     10.00       0.0
  mid14b               JUNCTION             10.14      9.86       0.0
  mid15                JUNCTION             10.00     10.00       0.0
  mid15a               JUNCTION             10.00     10.00       0.0
  mid15b               JUNCTION             10.15      9.85       0.0
  mid16                JUNCTION             10.00     10.00       0.0
  mid16a               JUNCTION             10.00     10.00       0.0
  mid16b               JUNCTION             10.16      9.84       0.0
  mid17                JUNCTION             10.00     10.00       0.0
  mid17a               JUNCTION             10.00     10.00       0.0
  mid17b               JUNCTION             10.17      9.83       0.0
  mid18                JUNCTION             10.00     10.00       0.0
  mid18a               JUNCTION             10.00     10.00       0.0
  mid18b               JUNCTION             10.18      9.82       0.0
  mid19                JUNCTION             10.00     10.00       0.0
  mid19a               JUNCTION             10.00     10.00       0.0
  mid19b               JUNCTION             10.19      9.81       0.0
  mid1a                JUNCTION             10.00     10.00       0.0
  mid1b                JUNCTION             10.01      9.99       0.0
  mid2                 JUNCTION             10.00     10.00       0.0
  mid20                JUNCTION             10.00     10.00       0.0
  mid20a               JUNCTION             10.00     10.00       0.0
  mid20b               JUNCTION             10.20      9.80       0.0
  mid2a                JUNCTION             10.00     10.00       0.0
  mid2b                JUNCTION             10.02      9.98       0.0
  mid3                 JUNCTION             10.00     10.00       0.0
  mid3a                JUNCTION             10.00     10.00       0.0
  mid3b                JUNCTION             10.03      9.97       0.0
  mid4                 JUNCTION             10.00     10.00       0.0
  mid4a                JUNCTION             10.00     10.00       0.0
  mid4b                JUNCTION             10.04      9.96       0.0
  mid5                 JUNCTION             10.00     10.00       0.0
  mid5a                JUNCTION             10.00     10.00       0.0
  mid5b                JUNCTION             10.05      9.95       0.0
  mid6                 JUNCTION             10.00     10.00       0.0
  mid6a                JUNCTION             10.00     10.00       0.0
  mid6b                JUNCTION             10.06      9.94       0.0
  mid7                 JUNCTION             10.00     10.00       0.0
  mid7a                JUNCTION             10.00     10.00       0.0
  mid7b                JUNCTION             10.07      9.93       0.0
  mid8                 JUNCTION             10.00     10.00       0.0
  mid8a                JUNCTION             10.00     10.00       0.0
  mid8b                JUNCTION             10.08      9.92       0.0
  mid9                 JUNCTION             10.00     10.00       0.0
  mid9a                JUNCTION             10.00     10.00       0.0
  mid9b                JUNCTION             10.09      9.91       0.0
  Outlet               OUTFALL              10.00      4.00       0.0
  Outleta              OUTFALL              10.00      4.00       0.0
  Outletb              OUTFALL              10.21      4.00       0.0
  
  
  ************
  Link Summary
  ************
  Name             From Node        To Node          Type            Length    %Slope Roughness
  ---------------------------------------------------------------------------------------------
  pipe1            Inflow           mid1             CONDUIT           10.0    0.0100    0.0110
  pipe2            mid1             mid2             CONDUIT           10.0    0.0100    0.0110
  pipe3            mid2             mid3             CONDUIT           10.0    0.0100    0.0110
  pipe4            mid3             mid4             CONDUIT           10.0    0.0100    0.0110
  pipe5            mid4             mid5             CONDUIT           10.0    0.0100    0.0110
  pipe6            mid5             mid6             CONDUIT           10.0    0.0100    0.0110
  pipe7            mid6             mid7             CONDUIT           10.0    0.0100    0.0110
  pipe8            mid7             mid8             CONDUIT           10.0    0.0100    0.0110
  pipe9            mid8             mid9             CONDUIT           10.0    0.0100    0.0110
  pip10            mid9             mid10            CONDUIT           10.0    0.0100    0.0110
  pip11            mid10            mid11            CONDUIT           10.0    0.0100    0.0110
  pip12            mid11            mid12            CONDUIT           10.0    0.0100    0.0110
  pip13            mid12            mid13            CONDUIT           10.0    0.0100    0.0110
  pip14            mid13            mid14            CONDUIT           10.0    0.0100    0.0110
  pip15            mid14            mid15            CONDUIT           10.0    0.0100    0.0110
  pip16            mid15            mid16            CONDUIT           10.0    0.0100    0.0110
  pip17            mid16            mid17            CONDUIT           10.0    0.0100    0.0110
  pip18            mid17            mid18            CONDUIT           10.0    0.0100    0.0110
  pip19            mid18            mid19            CONDUIT           10.0    0.0100    0.0110
  pip20            mid19            mid20            CONDUIT           10.0    0.0100    0.0110
  outlet           mid20            Outlet           CONDUIT           10.0    0.0100    0.0110
  pipe1a           Inflowa          mid1a            CONDUIT           10.0    0.0100    0.0110
  pipe2a           mid1a            mid2a            CONDUIT           10.0    0.0100    0.0110
  pipe3a           mid2a            mid3a            CONDUIT           10.0    0.0100    0.0110
  pipe4a           mid3a            mid4a            CONDUIT           10.0    0.0100    0.0110
  pipe5a           mid4a            mid5a            CONDUIT           10.0    0.0100    0.0110
  pipe6a           mid5a            mid6a            CONDUIT           10.0    0.0100    0.0110
  pipe7a           mid6a            mid7a            CONDUIT           10.0    0.0100    0.0110
  pipe8a           mid7a            mid8a            CONDUIT           10.0    0.0100    0.0110
  pipe9a           mid8a            mid9a            CONDUIT           10.0    0.0100    0.0110
  pip10a           mid9a            mid10a           CONDUIT           10.0    0.0100    0.0110
  pip11a           mid10a           mid11a           CONDUIT           10.0    0.0100    0.0110
  pip12a           mid11a           mid12a           CONDUIT           10.0    0.0100    0.0110
  pip13a           mid12a           mid13a           CONDUIT           10.0    0.0100    0.0110
  pip14a           mid13a           mid14a           CONDUIT           10.0    0.0100    0.0110
  pip15a           mid14a           mid15a           CONDUIT           10.0    0.0100    0.0110
  pip16a           mid15a           mid16a           CONDUIT           10.0    0.0100    0.0110
  pip17a           mid16a           mid17a           CONDUIT           10.0    0.0100    0.0110
  pip18a           mid17a           mid18a           CONDUIT           10.0    0.0100    0.0110
  pip19a           mid18a           mid19a           CONDUIT           10.0    0.0100    0.0110
  pip20a           mid19a           mid20a           CONDUIT           10.0    0.0100    0.0110
  outleta          mid20a           Outleta          CONDUIT           10.0    0.0100    0.0110
  pipe1b           Inflowb          mid1b            CONDUIT           10.0   -0.1000    0.0110
  pipe2b           mid1b            mid2b            CONDUIT           10.0   -0.1000    0.0110
  pipe3b           mid2b            mid3b            CONDUIT           10.0   -0.1000    0.0110
  pipe4b           mid3b            mid4b            CONDUIT           10.0   -0.1000    0.0110
  pipe5b           mid4b            mid5b            CONDUIT           10.0   -0.1000    0.0110
  pipe6b           mid5b            mid6b            CONDUIT           10.0   -0.1000    0.0110
  pipe7b           mid6b            mid7b            CONDUIT           10.0   -0.1000    0.0110
  pipe8b           mid7b            mid8b            CONDUIT           10.0   -0.1000    0.0110
  pipe9b           mid8b            mid9b            CONDUIT           10.0   -0.1000    0.0110
  pip10b           mid9b            mid10b           CONDUIT           10.0   -0.1000    0.0110
  pip11b           mid10b           mid11b           CONDUIT           10.0   -0.1000    0.0110
  pip12b           mid11b           mid12b           CONDUIT           10.0   -0.1000    0.0110
  pip13b           mid12b           mid13b           CONDUIT           10.0   -0.1000    0.0110
  pip14b           mid13b           mid14b           CONDUIT           10.0   -0.1000    0.0110
  pip15b           mid14b           mid15b           CONDUIT           10.0   -0.1000    0.0110
  pip16b           mid15b           mid16b           CONDUIT           10.0   -0.1000    0.0110
  pip17b           mid16b           mid17b           CONDUIT           10.0   -0.1000    0.0110
  pip18b           mid17b           mid18b           CONDUIT           10.0   -0.1000    0.0110
  pip19b           mid18b           mid19b           CONDUIT           10.0   -0.1000    0.0110
  pip20b           mid19b           mid20b           CONDUIT           10.0   -0.1000    0.0110
  outletb          mid20b           Outletb          CONDUIT           10.0   -0.1000    0.0110
  
  
  *********************
  Cross Section Summary
  *********************
                                        Full     Full     Hyd.     Max.   No. of     Full
  Conduit          Shape               Depth     Area     Rad.    Width  Barrels     Flow
  ---------------------------------------------------------------------------------------
  pipe1            CIRCULAR             4.00    12.57     1.00     4.00        1    16.98
  pipe2            CIRCULAR             4.00    12.57     1.00     4.00        1    16.98
  pipe3            CIRCULAR             4.00    12.57     1.00     4.00        1    16.98
  pipe4            CIRCULAR             4.00    12.57     1.00     4.00        1    16.98
  pipe5            CIRCULAR             4.00    12.57     1.00     4.00        1    16.98
  pipe6            CIRCULAR             4.00    12.57     1.00     4.00        1    16.98
  pipe7            CIRCULAR             4.00    12.57     1.00     4.00        1    16.98
  pipe8            CIRCULAR             4.00    12.57     1.00     4.00        1    16.98
  pipe9            CIRCULAR             4.00    12.57     1.00     4.00        1    16.98
  pip10            CIRCULAR             4.00    12.57     1.00     4.00        1    16.98
  pip11            CIRCULAR             4.00    12.57     1.00     4.00        1    16.98
  pip12            CIRCULAR             4.00    12.57     1.00     4.00        1    16.98
  pip13            CIRCULAR             4.00    12.57     1.00     4.00        1    16.98
  pip14            CIRCULAR             4.00    12.57     1.00     4.00        1    16.98
  pip15            CIRCULAR             4.00    12.57     1.00     4.00        1    16.98
  pip16            CIRCULAR             4.00    12.57     1.00     4.00        1    16.98
  pip17            CIRCULAR             4.00    12.57     1.00     4.00        1    16.98
  pip18            CIRCULAR             4.00    12.57     1.00     4.00        1    16.98
  pip19            CIRCULAR             4.00    12.57     1.00     4.00        1    16.98
  pip20            CIRCULAR             4.00    12.57     1.00     4.00        1    16.98
  outlet           CIRCULAR             4.00    12.57     1.00     4.00        1    16.98
  pipe1a           CIRCULAR             4.00    12.57     1.00     4.00        1    16.98
  pipe2a           CIRCULAR             4.00    12.57     1.00     4.00        1    16.98
  pipe3a           CIRCULAR             4.00    12.57     1.00     4.00        1    16.98
  pipe4a           CIRCULAR             4.00    12.57     1.00     4.00        1    16.98
  pipe5a           CIRCULAR             4.00    12.57     1.00     4.00        1    16.98
  pipe6a           CIRCULAR             4.00    12.57     1.00     4.00        1    16.98
  pipe7a           CIRCULAR             4.00    12.57     1.00     4.00        1    16.98
  pipe8a           CIRCULAR             4.00    12.57     1.00     4.00        1    16.98
  pipe9a           CIRCULAR             4.00    12.57     1.00     4.00        1    16.98
  pip10a           CIRCULAR             4.00    12.57     1.00     4.00        1    16.98
  pip11a           CIRCULAR             4.00    12.57     1.00     4.00        1    16.98
  pip12a           CIRCULAR             4.00    12.57     1.00     4.00        1    16.98
  pip13a           CIRCULAR             4.00    12.57     1.00     4.00        1    16.98
  pip14a           CIRCULAR             4.00    12.57     1.00     4.00        1    16.98
  pip15a           CIRCULAR             4.00    12.57     1.00     4.00        1    16.98
  pip16a           CIRCULAR             4.00    12.57     1.00     4.00        1    16.98
  pip17a           CIRCULAR             4.00    12.57     1.00     4.00        1    16.98
  pip18a           CIRCULAR             4.00    12.57     1.00     4.00        1    16.98
  pip19a           CIRCULAR             4.00    12.57     1.00     4.00        1    16.98
  pip20a           CIRCULAR             4.00    12.57     1.00     4.00        1    16.98
  outleta          CIRCULAR             4.00    12.57     1.00     4.00        1    16.98
  pipe1b           CIRCULAR             4.00    12.57     1.00     4.00        1    53.68
  pipe2b           CIRCULAR             4.00    12.57     1.00     4.00        1    53.68
  pipe3b           CIRCULAR             4.00    12.57     1.00     4.00        1    53.68
  pipe4b           CIRCULAR             4.00    12.57     1.00     4.00        1    53.68
  pipe5b           CIRCULAR             4.00    12.57     1.00     4.00        1    53.68
  pipe6b           CIRCULAR             4.00    12.57     1.00     4.00        1    53.68
  pipe7b           CIRCULAR             4.00    12.57     1.00     4.00        1    53.68
  pipe8b           CIRCULAR             4.00    12.57     1.00     4.00        1    53.68
  pipe9b           CIRCULAR             4.00    12.57     1.00     4.00        1    53.68
  pip10b           CIRCULAR             4.00    12.57     1.00     4.00        1    53.68
  pip11b           CIRCULAR             4.00    12.57     1.00     4.00        1    53.68
  pip12b           CIRCULAR             4.00    12.57     1.00     4.00        1    53.68
  pip13b           CIRCULAR             4.00    12.57     1.00     4.00        1    53.68
  pip14b           CIRCULAR             4.00    12.57     1.00     4.00        1    53.68
  pip15b           CIRCULAR             4.00    12.57     1.00     4.00        1    53.68
  pip16b           CIRCULAR             4.00    12.57     1.00     4.00        1    53.68
  pip17b           CIRCULAR             4.00    12.57     1.00     4.00        1    53.68
  pip18b           CIRCULAR             4.00    12.57     1.00     4.00        1    53.68
  pip19b           CIRCULAR             4.00    12.57     1.00     4.00        1    53.68
  pip20b           CIRCULAR             4.00    12.57     1.00     4.00        1    53.68
  outletb          CIRCULAR             4.00    12.57     1.00     4.00        1    53.68
  
  
  ****************
  Analysis Options
  ****************
  Flow Units ............... CFS
  Process Models:
    Rainfall/Runoff ........ NO
    RDII ................... NO
    Snowmelt ............... NO
    Groundwater ............ NO
    Flow Routing ........... YES
    Ponding Allowed ........ NO
    Water Quality .......... YES
  Flow Routing Method ...... DYNWAVE
  Surcharge Method ......... EXTRAN
  Starting Date ............ 02/22/2002 00:00:00
  Ending Date .............. 02/22/2002 01:20:00
  Antecedent Dry Days ...... 0.0
  Report Time Step ......... 00:01:00
  Routing Time Step ........ 30.00 sec
  Variable Time Step ....... YES
  Maximum Trials ........... 8
  Number of Threads ........ 1
  Head Tolerance ........... 0.005000 ft
  
  
  **************************        Volume        Volume
  Flow Routing Continuity        acre-feet      10^6 gal
  **************************     ---------     ---------
  Dry Weather Inflow .......         0.000         0.000
  Wet Weather Inflow .......         0.000         0.000
  Groundwater Inflow .......         0.000         0.000
  RDII Inflow ..............         0.000         0.000
  External Inflow ..........         4.182         1.363
  External Outflow .........         3.434         1.119
  Flooding Loss ............         0.044         0.014
  Evaporation Loss .........         0.000         0.000
  Exfiltration Loss ........         0.000         0.000
  Initial Stored Volume ....         0.000         0.000
  Final Stored Volume ......         0.065         0.021
  Continuity Error (%) .....        15.245
  
  
  **************************           nda
  Quality Routing Continuity           lbs
  **************************    ----------
  Dry Weather Inflow .......         0.000
  Wet Weather Inflow .......         0.000
  Groundwater Inflow .......         0.000
  RDII Inflow ..............         0.000
  External Inflow ..........         0.000
  External Outflow .........         0.000
  Flooding Loss ............         0.000
  Exfiltration Loss ........         0.000
  Mass Reacted .............         0.000
  Initial Stored Mass ......         0.000
  Final Stored Mass ........         0.000
  Continuity Error (%) .....         0.000
  
  
  *************************
  Highest Continuity Errors
  *************************
  Node mid9 (3.24%)
  Node mid10 (3.20%)
  Node mid11 (3.14%)
  Node mid7 (3.14%)
  Node mid6 (3.12%)
  
  
  ***************************
  Time-Step Critical Elements
  ***************************
  Link pipe1a (11.89%)
  Link pipe2a (7.17%)
  Link pipe3a (6.03%)
  Link pipe5a (5.05%)
  Link outletb (4.72%)
  
  
  ********************************
  Highest Flow Instability Indexes
  ********************************
  Link pipe1a (64)
  Link pipe2a (48)
  Link pipe3a (41)
  Link pipe4a (41)
  Link pipe5a (38)
  
  
  *********************************
  Most Frequent Nonconverging Nodes
  *********************************
  Node Outlet (58.63%)
  Node Outleta (58.63%)
  Node Outletb (58.63%)
  Node mid20b (13.36%)
  Node mid9a (6.68%)
  
  
  *************************
  Routing Time Step Summary
  *************************
  Minimum Time Step           :     0.50 sec
  Average Time Step           :     7.82 sec
  Maximum Time Step           :    30.00 sec
  % of Time in Steady State   :     0.00
  Average Iterations per Step :     6.59
  % of Steps Not Converging   :    58.63
  Time Step Frequencies       :
     30.000 - 13.228 sec      :     1.47 %
     13.228 -  5.833 sec      :    86.62 %
      5.833 -  2.572 sec      :    10.44 %
      2.572 -  1.134 sec      :     0.98 %
      1.134 -  0.500 sec      :     0.49 %
  
  
  ******************
  Node Depth Summary
  ******************
  
  ---------------------------------------------------------------------------------
                                 Average  Maximum  Maximum  Time of Max    Reported
                                   Depth    Depth      HGL   Occurrence   Max Depth
  Node                 Type         Feet     Feet     Feet  days hr:min        Feet
  ---------------------------------------------------------------------------------
  Inflow               JUNCTION     0.72     0.87    10.87     0  01:19        0.86
  Inflowa              JUNCTION     2.31     2.78    12.78     0  01:14        2.73
  Inflowb              JUNCTION     1.92     8.91    18.91     0  00:18        8.16
  mid1                 JUNCTION     0.70     0.86    10.86     0  01:19        0.85
  mid10                JUNCTION     0.53     0.76    10.76     0  01:19        0.75
  mid10a               JUNCTION     1.82     2.28    12.28     0  01:11        2.27
  mid10b               JUNCTION     1.57     4.41    14.51     0  00:21        4.05
  mid11                JUNCTION     0.51     0.74    10.74     0  01:19        0.74
  mid11a               JUNCTION     1.76     2.22    12.22     0  00:59        2.20
  mid11b               JUNCTION     1.53     5.78    15.89     0  00:22        3.62
  mid12                JUNCTION     0.48     0.72    10.72     0  01:09        0.72
  mid12a               JUNCTION     1.70     2.16    12.16     0  01:11        2.13
  mid12b               JUNCTION     1.50     3.31    13.43     0  00:22        3.17
  mid13                JUNCTION     0.46     0.70    10.70     0  01:15        0.69
  mid13a               JUNCTION     1.64     2.06    12.06     0  01:13        2.05
  mid13b               JUNCTION     1.47     3.36    13.49     0  00:26        2.41
  mid14                JUNCTION     0.43     0.68    10.68     0  01:16        0.67
  mid14a               JUNCTION     1.58     2.04    12.04     0  01:11        1.99
  mid14b               JUNCTION     1.47     4.47    14.61     0  00:22        3.29
  mid15                JUNCTION     0.41     0.66    10.66     0  01:16        0.64
  mid15a               JUNCTION     1.51     2.01    12.01     0  01:12        1.98
  mid15b               JUNCTION     1.44     6.40    16.55     0  00:22        2.81
  mid16                JUNCTION     0.38     0.62    10.62     0  01:15        0.61
  mid16a               JUNCTION     1.44     1.93    11.93     0  01:11        1.92
  mid16b               JUNCTION     1.38     9.84    20.00     0  00:22        2.61
  mid17                JUNCTION     0.36     0.59    10.59     0  01:12        0.59
  mid17a               JUNCTION     1.37     1.85    11.85     0  01:12        1.84
  mid17b               JUNCTION     1.39     7.45    17.62     0  00:22        4.12
  mid18                JUNCTION     0.33     0.56    10.56     0  01:17        0.55
  mid18a               JUNCTION     1.30     1.75    11.75     0  00:54        1.73
  mid18b               JUNCTION     1.37     9.69    19.87     0  00:22        6.36
  mid19                JUNCTION     0.30     0.54    10.54     0  01:12        0.53
  mid19a               JUNCTION     1.22     1.69    11.69     0  00:54        1.69
  mid19b               JUNCTION     1.35     9.81    20.00     0  00:23        3.72
  mid1a                JUNCTION     2.27     2.73    12.73     0  01:14        2.69
  mid1b                JUNCTION     1.88     3.62    13.63     0  00:18        2.53
  mid2                 JUNCTION     0.69     0.85    10.85     0  01:18        0.85
  mid20                JUNCTION     0.27     0.49    10.49     0  01:13        0.49
  mid20a               JUNCTION     1.13     1.55    11.55     0  01:03        1.55
  mid20b               JUNCTION     0.95     1.81    12.01     0  00:35        1.65
  mid2a                JUNCTION     2.23     2.66    12.66     0  01:14        2.66
  mid2b                JUNCTION     1.85     4.38    14.40     0  00:18        2.85
  mid3                 JUNCTION     0.67     0.84    10.84     0  01:18        0.84
  mid3a                JUNCTION     2.18     2.60    12.60     0  01:14        2.58
  mid3b                JUNCTION     1.80     4.02    14.05     0  00:17        2.34
  mid4                 JUNCTION     0.65     0.82    10.82     0  01:07        0.82
  mid4a                JUNCTION     2.13     2.56    12.56     0  01:15        2.52
  mid4b                JUNCTION     1.79     9.96    20.00     0  00:31        3.34
  mid5                 JUNCTION     0.63     0.82    10.82     0  01:19        0.81
  mid5a                JUNCTION     2.08     2.54    12.54     0  01:15        2.50
  mid5b                JUNCTION     1.74     8.27    18.32     0  00:31        2.35
  mid6                 JUNCTION     0.61     0.80    10.80     0  01:19        0.80
  mid6a                JUNCTION     2.03     2.48    12.48     0  01:13        2.44
  mid6b                JUNCTION     1.70     9.94    20.00     0  00:30        4.51
  mid7                 JUNCTION     0.59     0.79    10.79     0  01:09        0.79
  mid7a                JUNCTION     1.98     2.43    12.43     0  00:59        2.43
  mid7b                JUNCTION     1.68     7.21    17.28     0  00:30        2.90
  mid8                 JUNCTION     0.57     0.79    10.79     0  01:10        0.78
  mid8a                JUNCTION     1.93     2.37    12.37     0  01:00        2.36
  mid8b                JUNCTION     1.61     3.26    13.34     0  00:30        3.25
  mid9                 JUNCTION     0.55     0.77    10.77     0  01:09        0.77
  mid9a                JUNCTION     1.88     2.33    12.33     0  01:19        2.31
  mid9b                JUNCTION     1.59     9.91    20.00     0  00:21        2.23
  Outlet               OUTFALL      0.23     0.43    10.43     0  01:12        0.43
  Outleta              OUTFALL      1.04     1.46    11.46     0  01:02        1.45
  Outletb              OUTFALL      1.01     4.00    14.21     0  00:23        3.53
  
  
  *******************
  Node Inflow Summary
  *******************
  
  -------------------------------------------------------------------------------------------------
                                  Maximum  Maximum                  Lateral       Total        Flow
                                  Lateral    Total  Time of Max      Inflow      Inflow     Balance
                                   Inflow   Inflow   Occurrence      Volume      Volume       Error
  Node                 Type           CFS      CFS  days hr:min    10^6 gal    10^6 gal     Percent
  -------------------------------------------------------------------------------------------------
  Inflow               JUNCTION      2.00     2.00     0  00:15      0.0649      0.0649       1.518
  Inflowa              JUNCTION     20.00    20.00     0  00:15       0.649       0.649       0.639
  Inflowb              JUNCTION     20.00    63.39     0  00:18       0.649       0.653      -0.022
  mid1                 JUNCTION      0.00     2.30     0  00:40           0      0.0639       2.995
  mid10                JUNCTION      0.00     2.36     0  00:50           0      0.0483       3.307
  mid10a               JUNCTION      0.00    28.28     0  01:16           0       0.577       1.264
  mid10b               JUNCTION      0.00   175.34     0  00:21           0       0.619       1.258
  mid11                JUNCTION      0.00     2.51     0  01:11           0      0.0468       3.245
  mid11a               JUNCTION      0.00    28.22     0  01:16           0        0.57       1.229
  mid11b               JUNCTION      0.00   158.74     0  00:22           0       0.611       0.468
  mid12                JUNCTION      0.00     2.58     0  01:11           0      0.0453       3.097
  mid12a               JUNCTION      0.00    26.57     0  01:16           0       0.563       1.015
  mid12b               JUNCTION      0.00   153.59     0  00:22           0       0.607       1.082
  mid13                JUNCTION      0.00     2.68     0  01:11           0       0.044       2.845
  mid13a               JUNCTION      0.00    26.70     0  00:53           0       0.557       1.000
  mid13b               JUNCTION      0.00   130.75     0  00:22           0       0.601       1.358
  mid14                JUNCTION      0.00     2.59     0  01:11           0      0.0427       2.921
  mid14a               JUNCTION      0.00    27.16     0  01:03           0       0.552       1.078
  mid14b               JUNCTION      0.00   131.71     0  00:22           0       0.593       1.253
  mid15                JUNCTION      0.00     2.72     0  01:11           0      0.0415       2.861
  mid15a               JUNCTION      0.00    26.07     0  01:03           0       0.546       1.005
  mid15b               JUNCTION      0.00   150.88     0  00:22           0       0.587       1.054
  mid16                JUNCTION      0.00     2.69     0  01:11           0      0.0404       2.883
  mid16a               JUNCTION      0.00    25.23     0  00:45           0        0.54       0.992
  mid16b               JUNCTION      0.00   192.76     0  00:22           0       0.584       1.200
  mid17                JUNCTION      0.00     2.68     0  01:11           0      0.0392       2.736
  mid17a               JUNCTION      0.00    25.16     0  00:45           0       0.535       0.894
  mid17b               JUNCTION      0.00   193.92     0  00:22           0       0.577      -0.148
  mid18                JUNCTION      0.00     2.60     0  01:12           0      0.0382       2.756
  mid18a               JUNCTION      0.00    25.83     0  00:46           0        0.53       0.898
  mid18b               JUNCTION      0.00   193.45     0  00:22           0       0.574       0.535
  mid19                JUNCTION      0.00     2.46     0  01:17           0      0.0372       2.492
  mid19a               JUNCTION      0.00    25.28     0  00:46           0       0.525       0.804
  mid19b               JUNCTION      0.00   221.37     0  00:23           0       0.561       0.068
  mid1a                JUNCTION      0.00    21.81     0  00:49           0       0.645       1.177
  mid1b                JUNCTION      0.00    97.44     0  00:18           0       0.661       0.895
  mid2                 JUNCTION      0.00     2.45     0  00:34           0      0.0621       3.021
  mid20                JUNCTION      0.00     2.39     0  01:12           0      0.0363       2.122
  mid20a               JUNCTION      0.00    24.83     0  00:54           0       0.521       0.769
  mid20b               JUNCTION      0.00   173.64     0  00:23           0       0.552      -2.492
  mid2a                JUNCTION      0.00    24.46     0  01:10           0       0.637       1.283
  mid2b                JUNCTION      0.00   200.37     0  00:18           0       0.657       1.180
  mid3                 JUNCTION      0.00     2.47     0  00:27           0      0.0602       3.114
  mid3a                JUNCTION      0.00    25.65     0  01:13           0       0.629       1.244
  mid3b                JUNCTION      0.00   128.25     0  00:17           0       0.649       0.752
  mid4                 JUNCTION      0.00     2.43     0  00:40           0      0.0584       3.101
  mid4a                JUNCTION      0.00    26.49     0  01:03           0       0.621       1.234
  mid4b                JUNCTION      0.00   143.93     0  00:31           0       0.649       1.044
  mid5                 JUNCTION      0.00     2.48     0  00:40           0      0.0567       3.110
  mid5a                JUNCTION      0.00    27.68     0  01:03           0       0.614       1.238
  mid5b                JUNCTION      0.00   136.93     0  00:15           0       0.641      -1.797
  mid6                 JUNCTION      0.00     2.46     0  00:35           0       0.055       3.224
  mid6a                JUNCTION      0.00    27.91     0  01:03           0       0.606       1.203
  mid6b                JUNCTION      0.00   233.39     0  00:30           0       0.651       0.331
  mid7                 JUNCTION      0.00     2.47     0  00:35           0      0.0532       3.245
  mid7a                JUNCTION      0.00    27.90     0  00:52           0       0.599       1.337
  mid7b                JUNCTION      0.00   350.77     0  00:30           0       0.642       0.914
  mid8                 JUNCTION      0.00     2.38     0  00:35           0      0.0516       3.204
  mid8a                JUNCTION      0.00    28.85     0  00:52           0       0.591       1.232
  mid8b                JUNCTION      0.00   159.59     0  00:29           0       0.632       1.614
  mid9                 JUNCTION      0.00     2.41     0  01:02           0        0.05       3.351
  mid9a                JUNCTION      0.00    26.86     0  01:16           0       0.584       1.260
  mid9b                JUNCTION      0.00   142.73     0  00:29           0       0.623       0.473
  Outlet               OUTFALL       0.00     2.32     0  01:12           0      0.0355       0.000
  Outleta              OUTFALL       0.00    24.33     0  01:02           0       0.517       0.000
  Outletb              OUTFALL       0.00   652.78     0  00:23           0       0.566       0.000
  
  
  **********************
  Node Surcharge Summary
  **********************
  
  Surcharging occurs when water rises above the top of the highest conduit.
  ---------------------------------------------------------------------
                                               Max. Height   Min. Depth
                                   Hours       Above Crown    Below Rim
  Node                 Type      Surcharged           Feet         Feet
  ---------------------------------------------------------------------
  Inflowb              JUNCTION        0.01          4.912        1.088
  mid10b               JUNCTION        0.01          0.406        5.494
  mid11b               JUNCTION        0.01          1.777        4.113
  mid14b               JUNCTION        0.01          0.472        5.388
  mid15b               JUNCTION        0.01          2.400        3.450
  mid16b               JUNCTION        0.01          5.840        0.000
  mid17b               JUNCTION        0.01          3.455        2.375
  mid18b               JUNCTION        0.01          5.689        0.131
  mid19b               JUNCTION        0.01          5.810        0.000
  mid2b                JUNCTION        0.01          0.382        5.598
  mid3b                JUNCTION        0.01          0.020        5.950
  mid4b                JUNCTION        0.01          5.960        0.000
  mid5b                JUNCTION        0.01          4.270        1.680
  mid6b                JUNCTION        0.01          5.940        0.000
  mid7b                JUNCTION        0.01          3.212        2.718
  mid9b                JUNCTION        0.01          5.910        0.000
  
  
  *********************
  Node Flooding Summary
  *********************
  
  Flooding refers to all water that overflows a node, whether it ponds or not.
  --------------------------------------------------------------------------
                                                             Total   Maximum
                                 Maximum   Time of Max       Flood    Ponded
                        Hours       Rate    Occurrence      Volume     Depth
  Node                 Flooded       CFS   days hr:min    10^6 gal      Feet
  --------------------------------------------------------------------------
  mid16b                  0.01     63.04      0  00:22       0.002     0.000
  mid19b                  0.01    106.85      0  00:23       0.003     0.000
  mid4b                   0.01     94.71      0  00:31       0.002     0.000
  mid6b                   0.01    154.73      0  00:30       0.003     0.000
  mid9b                   0.01     56.10      0  00:21       0.002     0.000
  
  
  ***********************
  Outfall Loading Summary
  ***********************
  
  -------------------------------------------------------------------------
                         Flow       Avg       Max       Total         Total
                         Freq      Flow      Flow      Volume           nda
  Outfall Node           Pcnt       CFS       CFS    10^6 gal           lbs
  -------------------------------------------------------------------------
  Outlet                70.20      1.41      2.32       0.036         0.000
  Outleta               86.48     17.50     24.33       0.517         0.000
  Outletb               80.13     22.68    652.78       0.566         0.000
  -------------------------------------------------------------------------
  System                78.94     41.59    669.13       1.119         0.000
  
  
  ********************
  Link Flow Summary
  ********************
  
  -----------------------------------------------------------------------------
                                 Maximum  Time of Max   Maximum    Max/    Max/
                                  |Flow|   Occurrence   |Veloc|    Full    Full
  Link                 Type          CFS  days hr:min    ft/sec    Flow   Depth
  -----------------------------------------------------------------------------
  pipe1                CONDUIT      2.30     0  00:40      2.07    0.14    0.22
  pipe2                CONDUIT      2.45     0  00:34      2.05    0.14    0.21
  pipe3                CONDUIT      2.47     0  00:27      2.12    0.15    0.21
  pipe4                CONDUIT      2.43     0  00:40      2.26    0.14    0.21
  pipe5                CONDUIT      2.48     0  00:40      2.20    0.15    0.21
  pipe6                CONDUIT      2.46     0  00:35      2.19    0.14    0.20
  pipe7                CONDUIT      2.47     0  00:35      2.17    0.15    0.20
  pipe8                CONDUIT      2.38     0  00:35      2.14    0.14    0.20
  pipe9                CONDUIT      2.41     0  01:02      2.18    0.14    0.19
  pip10                CONDUIT      2.36     0  00:50      2.24    0.14    0.19
  pip11                CONDUIT      2.51     0  01:11      2.27    0.15    0.19
  pip12                CONDUIT      2.58     0  01:11      2.16    0.15    0.18
  pip13                CONDUIT      2.68     0  01:11      2.14    0.16    0.18
  pip14                CONDUIT      2.59     0  01:11      2.19    0.15    0.17
  pip15                CONDUIT      2.72     0  01:11      2.23    0.16    0.17
  pip16                CONDUIT      2.69     0  01:11      2.27    0.16    0.16
  pip17                CONDUIT      2.68     0  01:11      2.28    0.16    0.15
  pip18                CONDUIT      2.60     0  01:12      2.34    0.15    0.14
  pip19                CONDUIT      2.46     0  01:17      2.42    0.15    0.14
  pip20                CONDUIT      2.39     0  01:12      2.54    0.14    0.13
  outlet               CONDUIT      2.32     0  01:12      2.86    0.14    0.12
  pipe1a               CONDUIT     21.81     0  00:49      4.50    1.28    0.69
  pipe2a               CONDUIT     24.46     0  01:10      3.94    1.44    0.67
  pipe3a               CONDUIT     25.65     0  01:13      3.84    1.51    0.66
  pipe4a               CONDUIT     26.49     0  01:03      3.92    1.56    0.64
  pipe5a               CONDUIT     27.68     0  01:03      3.99    1.63    0.64
  pipe6a               CONDUIT     27.91     0  01:03      3.88    1.64    0.62
  pipe7a               CONDUIT     27.90     0  00:52      4.12    1.64    0.61
  pipe8a               CONDUIT     28.85     0  00:52      3.98    1.70    0.60
  pipe9a               CONDUIT     26.86     0  01:16      4.27    1.58    0.58
  pip10a               CONDUIT     28.28     0  01:16      4.16    1.67    0.58
  pip11a               CONDUIT     28.22     0  01:16      4.19    1.66    0.56
  pip12a               CONDUIT     26.57     0  01:16      4.33    1.57    0.54
  pip13a               CONDUIT     26.70     0  00:53      4.35    1.57    0.53
  pip14a               CONDUIT     27.16     0  01:03      4.63    1.60    0.51
  pip15a               CONDUIT     26.07     0  01:03      4.66    1.54    0.50
  pip16a               CONDUIT     25.23     0  00:45      4.66    1.49    0.49
  pip17a               CONDUIT     25.16     0  00:45      4.72    1.48    0.47
  pip18a               CONDUIT     25.83     0  00:46      4.87    1.52    0.45
  pip19a               CONDUIT     25.28     0  00:46      5.08    1.49    0.43
  pip20a               CONDUIT     24.83     0  00:54      5.40    1.46    0.40
  outleta              CONDUIT     24.33     0  01:02      5.72    1.43    0.38
  pipe1b               CONDUIT     75.03     0  00:19    >50.00    1.40    0.84
  pipe2b               CONDUIT    183.59     0  00:18     27.38    3.42    0.69
  pipe3b               CONDUIT    116.96     0  00:17     20.83    2.18    0.68
  pipe4b               CONDUIT     78.25     0  00:31     10.86    1.46    0.69
  pipe5b               CONDUIT    136.93     0  00:15     34.15    2.55    0.83
  pipe6b               CONDUIT    192.23     0  00:30     24.98    3.58    0.80
  pipe7b               CONDUIT    336.14     0  00:30    >50.00    6.26    0.80
  pipe8b               CONDUIT    150.38     0  00:29     28.41    2.80    0.69
  pipe9b               CONDUIT    141.22     0  00:29     33.90    2.63    0.67
  pip10b               CONDUIT    175.34     0  00:21     24.04    3.27    0.87
  pip11b               CONDUIT    158.74     0  00:22     12.79    2.96    0.96
  pip12b               CONDUIT    153.59     0  00:22     19.18    2.86    0.85
  pip13b               CONDUIT    130.75     0  00:22     21.34    2.44    0.77
  pip14b               CONDUIT    131.71     0  00:22     13.96    2.45    0.84
  pip15b               CONDUIT    150.88     0  00:22     12.83    2.81    0.97
  pip16b               CONDUIT    192.76     0  00:22    >50.00    3.59    0.88
  pip17b               CONDUIT    193.92     0  00:22     16.72    3.61    0.91
  pip18b               CONDUIT    193.45     0  00:22     16.92    3.60    1.00
  pip19b               CONDUIT    221.37     0  00:23     19.45    4.12    1.00
  pip20b               CONDUIT    173.64     0  00:23     47.10    3.23    0.72
  outletb              CONDUIT    652.78     0  00:23    >50.00   12.16    0.61
  
  
  ***************************
  Flow Classification Summary
  ***************************
  
  -------------------------------------------------------------------------------------
                      Adjusted    ---------- Fraction of Time in Flow Class ---------- 
                       /Actual         Up    Down  Sub   Sup   Up    Down  Norm  Inlet 
  Conduit               Length    Dry  Dry   Dry   Crit  Crit  Crit  Crit  Ltd   Ctrl  
  -------------------------------------------------------------------------------------
  pipe1                  12.70   0.00  0.00  0.00  0.98  0.02  0.00  0.00  0.09  0.00
  pipe2                  12.70   0.01  0.00  0.00  0.99  0.00  0.00  0.00  0.07  0.00
  pipe3                  12.70   0.01  0.00  0.00  0.99  0.00  0.00  0.00  0.06  0.00
  pipe4                  12.70   0.03  0.00  0.00  0.97  0.00  0.00  0.00  0.06  0.00
  pipe5                  12.70   0.04  0.00  0.00  0.96  0.00  0.00  0.00  0.06  0.00
  pipe6                  12.70   0.06  0.00  0.00  0.94  0.00  0.00  0.00  0.06  0.00
  pipe7                  12.70   0.08  0.00  0.00  0.92  0.00  0.00  0.00  0.06  0.00
  pipe8                  12.70   0.10  0.00  0.00  0.90  0.00  0.00  0.00  0.06  0.00
  pipe9                  12.70   0.11  0.00  0.00  0.89  0.00  0.00  0.00  0.05  0.00
  pip10                  12.70   0.13  0.00  0.00  0.87  0.00  0.00  0.00  0.06  0.00
  pip11                  12.70   0.14  0.00  0.00  0.86  0.00  0.00  0.00  0.06  0.00
  pip12                  12.70   0.16  0.00  0.00  0.84  0.00  0.00  0.00  0.05  0.00
  pip13                  12.70   0.17  0.00  0.00  0.83  0.00  0.00  0.00  0.05  0.00
  pip14                  12.70   0.19  0.00  0.00  0.81  0.00  0.00  0.00  0.04  0.00
  pip15                  12.70   0.20  0.00  0.00  0.80  0.00  0.00  0.00  0.05  0.00
  pip16                  12.70   0.22  0.00  0.00  0.78  0.00  0.00  0.00  0.03  0.00
  pip17                  12.70   0.23  0.00  0.00  0.76  0.01  0.00  0.00  0.03  0.00
  pip18                  12.70   0.25  0.00  0.00  0.75  0.01  0.00  0.00  0.02  0.00
  pip19                  12.70   0.26  0.00  0.00  0.74  0.00  0.00  0.00  0.02  0.00
  pip20                  12.70   0.28  0.00  0.00  0.72  0.00  0.00  0.00  0.01  0.00
  outlet                 12.70   0.29  0.00  0.00  0.68  0.03  0.00  0.00  0.00  0.00
  pipe1a                 12.70   0.00  0.00  0.00  0.98  0.02  0.00  0.00  0.03  0.00
  pipe2a                 12.70   0.01  0.00  0.00  0.98  0.01  0.00  0.00  0.02  0.00
  pipe3a                 12.70   0.01  0.00  0.00  0.99  0.00  0.00  0.00  0.02  0.00
  pipe4a                 12.70   0.01  0.00  0.00  0.99  0.00  0.00  0.00  0.03  0.00
  pipe5a                 12.70   0.02  0.00  0.00  0.98  0.00  0.00  0.00  0.02  0.00
  pipe6a                 12.70   0.04  0.00  0.00  0.96  0.00  0.00  0.00  0.02  0.00
  pipe7a                 12.70   0.05  0.00  0.00  0.95  0.00  0.00  0.00  0.02  0.00
  pipe8a                 12.70   0.06  0.00  0.00  0.94  0.00  0.00  0.00  0.02  0.00
  pipe9a                 12.70   0.07  0.00  0.00  0.92  0.00  0.00  0.00  0.02  0.00
  pip10a                 12.70   0.08  0.00  0.00  0.92  0.00  0.00  0.00  0.02  0.00
  pip11a                 12.70   0.09  0.00  0.00  0.91  0.00  0.00  0.00  0.02  0.00
  pip12a                 12.70   0.10  0.00  0.00  0.90  0.00  0.00  0.00  0.03  0.00
  pip13a                 12.70   0.11  0.00  0.00  0.89  0.00  0.00  0.00  0.02  0.00
  pip14a                 12.70   0.12  0.00  0.00  0.88  0.00  0.00  0.00  0.01  0.00
  pip15a                 12.70   0.13  0.00  0.00  0.87  0.00  0.00  0.00  0.01  0.00
  pip16a                 12.70   0.14  0.00  0.00  0.86  0.00  0.00  0.00  0.01  0.00
  pip17a                 12.70   0.15  0.00  0.00  0.85  0.00  0.00  0.00  0.01  0.00
  pip18a                 12.70   0.15  0.00  0.00  0.84  0.00  0.00  0.00  0.01  0.00
  pip19a                 12.70   0.16  0.00  0.00  0.83  0.00  0.00  0.00  0.00  0.00
  pip20a                 12.70   0.17  0.00  0.00  0.82  0.01  0.00  0.00  0.00  0.00
  outleta                12.70   0.18  0.00  0.00  0.81  0.01  0.00  0.00  0.00  0.00
  pipe1b                 15.62   0.00  0.00  0.00  0.98  0.02  0.00  0.00  0.00  0.00
  pipe2b                 15.62   0.01  0.00  0.00  0.98  0.02  0.00  0.00  0.00  0.00
  pipe3b                 15.62   0.01  0.00  0.00  0.98  0.01  0.00  0.00  0.00  0.00
  pipe4b                 15.62   0.01  0.01  0.00  0.96  0.02  0.00  0.00  0.00  0.00
  pipe5b                 15.62   0.03  0.01  0.00  0.93  0.03  0.00  0.00  0.00  0.00
  pipe6b                 15.62   0.05  0.01  0.00  0.87  0.07  0.00  0.00  0.01  0.00
  pipe7b                 15.62   0.06  0.01  0.00  0.87  0.06  0.00  0.00  0.01  0.00
  pipe8b                 15.62   0.08  0.01  0.00  0.85  0.06  0.00  0.00  0.01  0.00
  pipe9b                 15.62   0.09  0.01  0.00  0.84  0.06  0.00  0.00  0.00  0.00
  pip10b                 15.62   0.10  0.01  0.00  0.84  0.05  0.00  0.00  0.00  0.00
  pip11b                 15.62   0.11  0.01  0.00  0.83  0.05  0.00  0.00  0.00  0.00
  pip12b                 15.62   0.12  0.00  0.00  0.79  0.08  0.00  0.00  0.01  0.00
  pip13b                 15.62   0.13  0.01  0.00  0.81  0.06  0.00  0.00  0.00  0.00
  pip14b                 15.62   0.14  0.01  0.00  0.79  0.07  0.00  0.00  0.00  0.00
  pip15b                 15.62   0.15  0.01  0.00  0.80  0.05  0.00  0.00  0.01  0.00
  pip16b                 15.62   0.16  0.01  0.00  0.79  0.05  0.00  0.00  0.01  0.00
  pip17b                 15.62   0.16  0.01  0.00  0.79  0.04  0.00  0.00  0.01  0.00
  pip18b                 15.62   0.17  0.01  0.00  0.78  0.04  0.00  0.00  0.01  0.00
  pip19b                 15.62   0.18  0.01  0.00  0.79  0.03  0.00  0.00  0.00  0.00
  pip20b                 15.62   0.19  0.01  0.00  0.67  0.13  0.00  0.00  0.00  0.00
  outletb                15.62   0.21  0.01  0.00  0.60  0.18  0.00  0.00  0.00  0.00
  
  
  *************************
  Conduit Surcharge Summary
  *************************
  
  ----------------------------------------------------------------------------
                                                           Hours        Hours 
                         --------- Hours Full --------   Above Full   Capacity
  Conduit                Both Ends  Upstream  Dnstream   Normal Flow   Limited
  ----------------------------------------------------------------------------
  pipe1a                      0.01      0.01      0.01      1.08         0.01
  pipe2a                      0.01      0.01      0.01      1.04         0.01
  pipe3a                      0.01      0.01      0.01      0.96         0.01
  pipe4a                      0.01      0.01      0.01      0.93         0.01
  pipe5a                      0.01      0.01      0.01      0.90         0.01
  pipe6a                      0.01      0.01      0.01      0.89         0.01
  pipe7a                      0.01      0.01      0.01      0.87         0.01
  pipe8a                      0.01      0.01      0.01      0.85         0.01
  pipe9a                      0.01      0.01      0.01      0.85         0.01
  pip10a                      0.01      0.01      0.01      0.84         0.01
  pip11a                      0.01      0.01      0.01      0.82         0.01
  pip12a                      0.01      0.01      0.01      0.80         0.01
  pip13a                      0.01      0.01      0.01      0.78         0.01
  pip14a                      0.01      0.01      0.01      0.74         0.01
  pip15a                      0.01      0.01      0.01      0.73         0.01
  pip16a                      0.01      0.01      0.01      0.75         0.01
  pip17a                      0.01      0.01      0.01      0.74         0.01
  pip18a                      0.01      0.01      0.01      0.73         0.01
  pip19a                      0.01      0.01      0.01      0.72         0.01
  pip20a                      0.01      0.01      0.01      0.72         0.01
  outleta                     0.01      0.01      0.01      0.74         0.01
  pipe1b                      0.01      0.01      0.01      0.01         0.01
  pipe2b                      0.01      0.01      0.01      0.01         0.01
  pipe3b                      0.01      0.01      0.01      0.01         0.01
  pipe4b                      0.01      0.01      0.01      0.01         0.01
  pipe5b                      0.01      0.01      0.01      0.02         0.01
  pipe6b                      0.01      0.01      0.01      0.02         0.01
  pipe7b                      0.01      0.01      0.01      0.02         0.01
  pipe8b                      0.01      0.01      0.01      0.02         0.01
  pipe9b                      0.01      0.01      0.01      0.01         0.01
  pip10b                      0.01      0.01      0.01      0.02         0.01
  pip11b                      0.01      0.01      0.01      0.02         0.01
  pip12b                      0.01      0.01      0.01      0.01         0.01
  pip13b                      0.01      0.01      0.01      0.01         0.01
  pip14b                      0.01      0.01      0.01      0.01         0.01
  pip15b                      0.01      0.01      0.01      0.02         0.01
  pip16b                      0.01      0.01      0.01      0.01         0.01
  pip17b                      0.01      0.01      0.01      0.01         0.01
  pip18b                      0.01      0.01      0.01      0.02         0.01
  pip19b                      0.01      0.01      0.01      0.03         0.01
  pip20b                      0.01      0.01      0.01      0.02         0.01
  outletb                     0.01      0.01      0.01      0.03         0.01
  
  
  ***************************
  Link Pollutant Load Summary
  ***************************
  
  ----------------------------------
                                 nda
  Link                           lbs
  ----------------------------------
  pipe1                        0.000
  pipe2                        0.000
  pipe3                        0.000
  pipe4                        0.000
  pipe5                        0.000
  pipe6                        0.000
  pipe7                        0.000
  pipe8                        0.000
  pipe9                        0.000
  pip10                        0.000
  pip11                        0.000
  pip12                        0.000
  pip13                        0.000
  pip14                        0.000
  pip15                        0.000
  pip16                        0.000
  pip17                        0.000
  pip18                        0.000
  pip19                        0.000
  pip20                        0.000
  outlet                       0.000
  pipe1a                       0.000
  pipe2a                       0.000
  pipe3a                       0.000
  pipe4a                       0.000
  pipe5a                       0.000
  pipe6a                       0.000
  pipe7a                       0.000
  pipe8a                       0.000
  pipe9a                       0.000
  pip10a                       0.000
  pip11a                       0.000
  pip12a                       0.000
  pip13a                       0.000
  pip14a                       0.000
  pip15a                       0.000
  pip16a                       0.000
  pip17a                       0.000
  pip18a                       0.000
  pip19a                       0.000
  pip20a                       0.000
  outleta                      0.000
  pipe1b                       0.000
  pipe2b                       0.000
  pipe3b                       0.000
  pipe4b                       0.000
  pipe5b                       0.000
  pipe6b                       0.000
  pipe7b                       0.000
  pipe8b                       0.000
  pipe9b                       0.000
  pip10b                       0.000
  pip11b                       0.000
  pip12b                       0.000
  pip13b                       0.000
  pip14b                       0.000
  pip15b                       0.000
  pip16b                       0.000
  pip17b                       0.000
  pip18b                       0.000
  pip19b                       0.000
  pip20b                       0.000
  outletb                      0.000
  

  Analysis begun on:  Fri Mar  6 14:27:31 2026
  Analysis ended on:  Fri Mar  6 14:27:31 2026
  Total elapsed time: < 1 sec