
  EPA STORM WATER MANAGEMENT MODEL - VERSION 5.2 (Build 5.2.4)
  ------------------------------------------------------------

  
  ERROR 211: invalid number 0 at line 26 of [OPTION] section:
  ROUTING_STEP

  Analysis begun on:  Fri Mar  6 14:27:31 2026
  Analysis ended on:  Fri Mar  6 14:27:31 2026
  Total elapsed time: < 1 sec