
  EPA STORM WATER MANAGEMENT MODEL - VERSION 5.2 (Build 5.2.4)
  ------------------------------------------------------------

              Extran with surcharge in 2 foot circular conduits 
              SWMM CRADA Example 1 
  
  ****************
  Analysis Options
  ****************
  Flow Units ............... CFS
  Process Models:
    Rainfall/Runoff ........ NO
    RDII ................... NO
    Snowmelt ............... NO
    Groundwater ............ NO
    Flow Routing ........... YES
    Ponding Allowed ........ NO
    Water Quality .......... NO
  Flow Routing Method ...... DYNWAVE
  Surcharge Method ......... EXTRAN
  Starting Date ............ 02/22/2002 00:00:00
  Ending Date .............. 02/22/2002 00:25:00
  Antecedent Dry Days ...... 0.0
  Report Time Step ......... 00:00:01
  Routing Time Step ........ 1.00 sec
  Variable Time Step ....... YES
  Maximum Trials ........... 8
  Number of Threads ........ 1
  Head Tolerance ........... 0.005000 ft
  
  
  **************************        Volume        Volume
  Flow Routing Continuity        acre-feet      10^6 gal
  **************************     ---------     ---------
  Dry Weather Inflow .......         0.000         0.000
  Wet Weather Inflow .......         0.000         0.000
  Groundwater Inflow .......         0.000         0.000
  RDII Inflow ..............         0.000         0.000
  External Inflow ..........         0.601         0.196
  External Outflow .........         0.410         0.134
  Flooding Loss ............         0.071         0.023
  Evaporation Loss .........         0.000         0.000
  Exfiltration Loss ........         0.000         0.000
  Initial Stored Volume ....         0.000         0.000
  Final Stored Volume ......         0.070         0.023
  Continuity Error (%) .....         8.428
  
  
  *************************
  Highest Continuity Errors
  *************************
  Node mid8 (3.06%)
  Node mid7 (2.99%)
  Node mid6 (2.89%)
  Node mid5 (2.76%)
  Node mid4 (2.65%)
  
  
  ***************************
  Time-Step Critical Elements
  ***************************
  None
  
  
  ********************************
  Highest Flow Instability Indexes
  ********************************
  All links are stable.
  
  
  *********************************
  Most Frequent Nonconverging Nodes
  *********************************
  Node Outlet (15.79%)
  Node Inflow (13.39%)
  Node mid1 (11.86%)
  Node mid2 (8.39%)
  Node mid3 (7.20%)
  
  
  *************************
  Routing Time Step Summary
  *************************
  Minimum Time Step           :     0.17 sec
  Average Time Step           :     1.00 sec
  Maximum Time Step           :     1.00 sec
  % of Time in Steady State   :     0.00
  Average Iterations per Step :     3.39
  % of Steps Not Converging   :    15.79
  Time Step Frequencies       :
      1.000 -  0.871 sec      :    99.87 %
      0.871 -  0.758 sec      :     0.00 %
      0.758 -  0.660 sec      :     0.13 %
      0.660 -  0.574 sec      :     0.00 %
      0.574 -  0.500 sec      :     0.00 %
  
  
  ******************
  Node Depth Summary
  ******************
  
  ---------------------------------------------------------------------------------
                                 Average  Maximum  Maximum  Time of Max    Reported
                                   Depth    Depth      HGL   Occurrence   Max Depth
  Node                 Type         Feet     Feet     Feet  days hr:min        Feet
  ---------------------------------------------------------------------------------
  Inflow               JUNCTION     7.78    10.00    20.00     0  00:01       10.00
  mid1                 JUNCTION     7.06     9.84    19.84     0  00:10        9.80
  mid2                 JUNCTION     6.45     9.48    19.48     0  00:10        9.44
  mid3                 JUNCTION     5.88     8.95    18.95     0  00:10        8.93
  mid4                 JUNCTION     5.33     8.32    18.32     0  00:10        8.31
  mid5                 JUNCTION     4.79     7.74    17.74     0  00:10        7.73
  mid6                 JUNCTION     4.27     7.30    17.30     0  00:10        7.29
  mid7                 JUNCTION     3.77     7.30    17.30     0  00:10        7.23
  mid8                 JUNCTION     3.29     7.03    17.03     0  00:10        6.80
  mid9                 JUNCTION     2.82     4.99    14.99     0  00:10        4.99
  Outlet               OUTFALL      0.00     0.00    10.00     0  00:00        0.00
  
  
  *******************
  Node Inflow Summary
  *******************
  
  -------------------------------------------------------------------------------------------------
                                  Maximum  Maximum                  Lateral       Total        Flow
                                  Lateral    Total  Time of Max      Inflow      Inflow     Balance
                                   Inflow   Inflow   Occurrence      Volume      Volume       Error
  Node                 Type           CFS      CFS  days hr:min    10^6 gal    10^6 gal     Percent
  -------------------------------------------------------------------------------------------------
  Inflow               JUNCTION     25.00    25.00     0  00:15       0.196       0.196       0.688
  mid1                 JUNCTION      0.00    20.54     0  00:13           0       0.172       2.415
  mid2                 JUNCTION      0.00    20.54     0  00:13           0       0.168       2.535
  mid3                 JUNCTION      0.00    20.54     0  00:13           0       0.163       2.632
  mid4                 JUNCTION      0.00    20.54     0  00:13           0       0.159       2.720
  mid5                 JUNCTION      0.00    20.54     0  00:13           0       0.155       2.836
  mid6                 JUNCTION      0.00    20.54     0  00:14           0       0.151       2.973
  mid7                 JUNCTION      0.00    20.54     0  00:14           0       0.146       3.080
  mid8                 JUNCTION      0.00    20.54     0  00:14           0       0.142       3.159
  mid9                 JUNCTION      0.00    20.54     0  00:13           0       0.138       2.974
  Outlet               OUTFALL       0.00    21.24     0  00:10           0       0.134       0.000
  
  
  **********************
  Node Surcharge Summary
  **********************
  
  Surcharging occurs when water rises above the top of the highest conduit.
  ---------------------------------------------------------------------
                                               Max. Height   Min. Depth
                                   Hours       Above Crown    Below Rim
  Node                 Type      Surcharged           Feet         Feet
  ---------------------------------------------------------------------
  Inflow               JUNCTION        0.39          8.000        0.000
  mid1                 JUNCTION        0.30          4.839        0.161
  mid2                 JUNCTION        0.29          4.481        0.519
  mid3                 JUNCTION        0.28          3.955        1.045
  mid4                 JUNCTION        0.27          3.323        1.677
  mid5                 JUNCTION        0.27          2.744        2.256
  mid6                 JUNCTION        0.26          2.295        2.705
  mid7                 JUNCTION        0.25          2.300        2.700
  mid8                 JUNCTION        0.24          2.029        2.971
  
  
  *********************
  Node Flooding Summary
  *********************
  
  Flooding refers to all water that overflows a node, whether it ponds or not.
  --------------------------------------------------------------------------
                                                             Total   Maximum
                                 Maximum   Time of Max       Flood    Ponded
                        Hours       Rate    Occurrence      Volume     Depth
  Node                 Flooded       CFS   days hr:min    10^6 gal      Feet
  --------------------------------------------------------------------------
  Inflow                  0.22      4.47      0  00:15       0.023     0.000
  
  
  ***********************
  Outfall Loading Summary
  ***********************
  
  -----------------------------------------------------------
                         Flow       Avg       Max       Total
                         Freq      Flow      Flow      Volume
  Outfall Node           Pcnt       CFS       CFS    10^6 gal
  -----------------------------------------------------------
  Outlet                59.96     19.89     21.24       0.134
  -----------------------------------------------------------
  System                59.96     19.89     21.24       0.134
  
  
  ********************
  Link Flow Summary
  ********************
  
  -----------------------------------------------------------------------------
                                 Maximum  Time of Max   Maximum    Max/    Max/
                                  |Flow|   Occurrence   |Veloc|    Full    Full
  Link                 Type          CFS  days hr:min    ft/sec    Flow   Depth
  -----------------------------------------------------------------------------
  pipe1                CONDUIT     20.54     0  00:13      6.54    0.44    1.00
  pipe2                CONDUIT     20.54     0  00:13      6.54    0.44    1.00
  pipe3                CONDUIT     20.54     0  00:13      6.54    0.44    1.00
  pipe4                CONDUIT     20.54     0  00:13      6.54    0.44    1.00
  pipe5                CONDUIT     20.54     0  00:13      6.54    0.44    1.00
  pipe6                CONDUIT     20.54     0  00:14      6.54    0.44    1.00
  pipe7                CONDUIT     20.54     0  00:14      6.54    0.44    1.00
  pipe8                CONDUIT     20.54     0  00:14      6.80    0.44    1.00
  pipe9                CONDUIT     20.54     0  00:13      7.34    0.44    1.00
  outlet               CONDUIT     21.24     0  00:10      8.55    0.46    0.74
  
  
  ***************************
  Flow Classification Summary
  ***************************
  
  -------------------------------------------------------------------------------------
                      Adjusted    ---------- Fraction of Time in Flow Class ---------- 
                       /Actual         Up    Down  Sub   Sup   Up    Down  Norm  Inlet 
  Conduit               Length    Dry  Dry   Dry   Crit  Crit  Crit  Crit  Ltd   Ctrl  
  -------------------------------------------------------------------------------------
  pipe1                   1.00   0.00  0.08  0.00  0.87  0.00  0.05  0.00  0.00  0.00
  pipe2                   1.00   0.07  0.05  0.00  0.83  0.00  0.05  0.00  0.00  0.00
  pipe3                   1.00   0.12  0.05  0.00  0.79  0.00  0.05  0.00  0.00  0.00
  pipe4                   1.00   0.17  0.04  0.00  0.75  0.00  0.05  0.00  0.00  0.00
  pipe5                   1.00   0.21  0.04  0.00  0.71  0.00  0.04  0.00  0.00  0.00
  pipe6                   1.00   0.25  0.04  0.00  0.68  0.00  0.04  0.00  0.00  0.00
  pipe7                   1.00   0.28  0.03  0.00  0.65  0.00  0.04  0.00  0.00  0.00
  pipe8                   1.00   0.32  0.03  0.00  0.62  0.00  0.03  0.00  0.00  0.00
  pipe9                   1.00   0.35  0.03  0.00  0.59  0.00  0.03  0.00  0.00  0.00
  outlet                  1.00   0.37  0.03  0.00  0.00  0.00  0.60  0.00  0.00  0.00
  
  
  *************************
  Conduit Surcharge Summary
  *************************
  
  ----------------------------------------------------------------------------
                                                           Hours        Hours 
                         --------- Hours Full --------   Above Full   Capacity
  Conduit                Both Ends  Upstream  Dnstream   Normal Flow   Limited
  ----------------------------------------------------------------------------
  pipe1                       0.30      0.30      0.39      0.01         0.01
  pipe2                       0.29      0.29      0.37      0.01         0.01
  pipe3                       0.28      0.28      0.35      0.01         0.01
  pipe4                       0.27      0.27      0.33      0.01         0.01
  pipe5                       0.27      0.27      0.31      0.01         0.01
  pipe6                       0.26      0.26      0.30      0.01         0.01
  pipe7                       0.25      0.25      0.28      0.01         0.01
  pipe8                       0.24      0.24      0.27      0.01         0.01
  pipe9                       0.01      0.01      0.26      0.01         0.01
  outlet                      0.01      0.01      0.25      0.01         0.01
  

  Analysis begun on:  Fri Mar  6 14:28:37 2026
  Analysis ended on:  Fri Mar  6 14:28:37 2026
  Total elapsed time: < 1 sec