
  EPA STORM WATER MANAGEMENT MODEL - VERSION 5.2 (Build 5.2.4)
  ------------------------------------------------------------

  
  ERROR 203: too few items at line 468 of [XSECT] section:
  OF169 RECT_OPEN

  
  ERROR 203: too few items at line 469 of [XSECT] section:
  OF255 RECT_OPEN

  
  ERROR 203: too few items at line 470 of [XSECT] section:
  OF525 RECT_OPEN

  
  ERROR 203: too few items at line 471 of [XSECT] section:
  OF61 RECT_OPEN

  
  ERROR 203: too few items at line 472 of [XSECT] section:
  OF63 RECT_OPEN

  
  ERROR 203: too few items at line 473 of [XSECT] section:
  OF64 RECT_OPEN

  
  ERROR 203: too few items at line 474 of [XSECT] section:
  OF753 RECT_OPEN


  Analysis begun on:  Fri Mar  6 14:29:38 2026
  Analysis ended on:  Fri Mar  6 14:29:38 2026
  Total elapsed time: < 1 sec