
  EPA STORM WATER MANAGEMENT MODEL - VERSION 5.2 (Build 5.2.4)
  ------------------------------------------------------------

  Runoff template file 
  Contains ALL SUBCATCHMENTS 
  *============================================================================ 
  WARNING 04: minimum elevation drop used for Conduit 18
  WARNING 04: minimum elevation drop used for Conduit 148
  WARNING 08: elevation drop exceeds length for Conduit 187
  WARNING 04: minimum elevation drop used for Conduit 260
  WARNING 04: minimum elevation drop used for Conduit 296
  WARNING 04: minimum elevation drop used for Conduit 297
  WARNING 04: minimum elevation drop used for Conduit 332
  WARNING 08: elevation drop exceeds length for Conduit 343
  WARNING 04: minimum elevation drop used for Conduit 387
  WARNING 04: minimum elevation drop used for Conduit 391
  WARNING 08: elevation drop exceeds length for Conduit 430
  WARNING 08: elevation drop exceeds length for Conduit 434
  WARNING 08: elevation drop exceeds length for Conduit 463
  WARNING 04: minimum elevation drop used for Conduit 487
  WARNING 04: minimum elevation drop used for Conduit 491
  WARNING 04: minimum elevation drop used for Conduit 750
  WARNING 04: minimum elevation drop used for Conduit 1031
  WARNING 04: minimum elevation drop used for Conduit 1041
  WARNING 04: minimum elevation drop used for Conduit 1045
  WARNING 08: elevation drop exceeds length for Conduit 1072
  WARNING 08: elevation drop exceeds length for Conduit 1081
  WARNING 08: elevation drop exceeds length for Conduit 1085
  WARNING 08: elevation drop exceeds length for Conduit 1122
  WARNING 08: elevation drop exceeds length for Conduit 1141
  WARNING 04: minimum elevation drop used for Conduit 1177
  WARNING 04: minimum elevation drop used for Conduit 1178
  WARNING 08: elevation drop exceeds length for Conduit 1223
  WARNING 08: elevation drop exceeds length for Conduit 1453
  WARNING 08: elevation drop exceeds length for Conduit 1619
  WARNING 04: minimum elevation drop used for Conduit 1644
  WARNING 04: minimum elevation drop used for Conduit 1681
  WARNING 08: elevation drop exceeds length for Conduit 1733
  WARNING 08: elevation drop exceeds length for Conduit 1734
  WARNING 04: minimum elevation drop used for Conduit 1863
  WARNING 04: minimum elevation drop used for Conduit 1872
  WARNING 08: elevation drop exceeds length for Conduit 1966
  WARNING 04: minimum elevation drop used for Conduit 2029
  WARNING 04: minimum elevation drop used for Conduit 2234
  WARNING 04: minimum elevation drop used for Conduit 2236
  WARNING 04: minimum elevation drop used for Conduit 2253
  WARNING 04: minimum elevation drop used for Conduit 2255
  WARNING 08: elevation drop exceeds length for Conduit 2256
  WARNING 08: elevation drop exceeds length for Conduit 2257
  WARNING 08: elevation drop exceeds length for Conduit 2373
  WARNING 08: elevation drop exceeds length for Conduit 2377
  WARNING 08: elevation drop exceeds length for Conduit 2382
  WARNING 08: elevation drop exceeds length for Conduit 2628
  WARNING 04: minimum elevation drop used for Conduit 2693
  WARNING 08: elevation drop exceeds length for Conduit 2754
  WARNING 08: elevation drop exceeds length for Conduit 2758
  
  *************
  Element Count
  *************
  Number of rain gages ...... 1
  Number of subcatchments ... 490
  Number of nodes ........... 1424
  Number of links ........... 1359
  Number of pollutants ...... 0
  Number of land uses ....... 10
  
  
  ***************
  Landuse Summary
  ***************
                         Sweeping   Maximum      Last
  Name                   Interval   Removal     Swept
  ---------------------------------------------------
  ESR                        0.00      0.00      0.00
  GC                         0.00      0.00      0.00
  HDR                        0.00      0.00      0.00
  HIC                        0.00      0.00      0.00
  IND                        0.00      0.00      0.00
  LDR                        0.00      0.00      0.00
  LIC                        0.00      0.00      0.00
  MDR                        0.00      0.00      0.00
  OS                         0.00      0.00      0.00
  WAT                        0.00      0.00      0.00
  
  
  ****************
  Raingage Summary
  ****************
                                                      Data       Recording
  Name                 Data Source                    Type       Interval 
  ------------------------------------------------------------------------
  GAGE2                2010_Dulles                    INTENSITY   60 min.
  
  
  ********************
  Subcatchment Summary
  ********************
  Name                       Area     Width   %Imperv    %Slope Rain Gage            Outlet              
  -----------------------------------------------------------------------------------------------------------
  SubCatchDFBA0001A          1.90     38.50      7.12    7.0000 GAGE2                DFBA0001AE          
  SubCatchDFBA0001C        155.30   3151.00      4.79    7.0000 GAGE2                DFBA0001C           
  SubCatchDFBA0002A          7.60    166.20      3.13   10.0000 GAGE2                9                   
  SubCatchDFBA0002C         99.10   2167.30      2.92   10.0000 GAGE2                DFBA0002C           
  SubCatchDFBA0003A         74.10   1595.80      2.34   11.0000 GAGE2                27                  
  SubCatchDFBA0003C        145.30   3129.00      3.18   11.0000 GAGE2                29                  
  SubCatchDFCH0002A         38.80    526.50      4.91    6.0000 GAGE2                DFCH0002C           
  SubCatchDFCH0002C        335.40   4550.80      3.53    6.0000 GAGE2                DFCH0002C           
  SubCatchDFCH0003A         31.70    544.50      3.72    6.0000 GAGE2                37                  
  SubCatchDFCH0003B         18.60    319.50      2.39    6.0000 GAGE2                DFCH0002C           
  SubCatchDFCH0003C        211.30   3629.40      3.87    6.0000 GAGE2                DFCH0003C           
  SubCatchDFCH0004A         49.50    839.50      2.79    8.0000 GAGE2                49                  
  SubCatchDFCH0004B          9.40    159.40      1.76    8.0000 GAGE2                48                  
  SubCatchDFCH0004C        244.90   4153.50      3.42    8.0000 GAGE2                47                  
  SubCatchDFCH0005A         20.40    191.00      3.23    8.0000 GAGE2                59                  
  SubCatchDFCH0005B          5.20     48.70      0.84    8.0000 GAGE2                60                  
  SubCatchDFCH0005C        210.50   1970.70      2.52    8.0000 GAGE2                61                  
  SubCatchDFCH0006A          2.90     98.30      1.49   13.0000 GAGE2                349                 
  SubCatchDFCH0006C        155.30   5264.00      1.16   13.0000 GAGE2                DFDF0047CT          
  SubCatchDFCH9701A         11.30    372.00      2.42    9.0000 GAGE2                80                  
  SubCatchDFCH9701C         72.90   2400.00      2.51    9.0000 GAGE2                DFCH9701C           
  SubCatchDFCH9801A         32.30    411.10     19.64    7.0000 GAGE2                DFCH9801AE          
  SubCatchDFCH9801C        244.70   3114.70     11.55    7.0000 GAGE2                DFCH9801C           
  SubCatchDFCR0001A         29.90    567.00     33.69    6.0000 GAGE2                85                  
  SubCatchDFCR0001B         37.50    711.20     44.29    6.0000 GAGE2                DFCR0001C           
  SubCatchDFCR0001C        108.10   2050.00     38.05    6.0000 GAGE2                84                  
  SubCatchDFCR0003A         22.00    474.60     47.18    7.0000 GAGE2                91                  
  SubCatchDFCR0003B         10.30    222.20     71.17    7.0000 GAGE2                93                  
  SubCatchDFCR0004A         33.70    570.30     59.84    9.0000 GAGE2                101                 
  SubCatchDFCR0004B          2.60     44.00     59.06    9.0000 GAGE2                99                  
  SubCatchDFCR0004C        175.90   2976.50     21.68    9.0000 GAGE2                DFCR0004C           
  SubCatchDFCR0005A          4.50    194.70      0.00   11.0000 GAGE2                109                 
  SubCatchDFCR0005C         59.10   2556.90      2.17   11.0000 GAGE2                DFCR0005C           
  SubCatchDFCR0006A          3.90     96.50      1.98   10.0000 GAGE2                112                 
  SubCatchDFCR0006C        108.20   2676.50      3.39   10.0000 GAGE2                DFCR0006C           
  SubCatchDFCR0007A         38.60    730.70      3.91   10.0000 GAGE2                127                 
  SubCatchDFCR0007B          2.30     43.50      1.48   10.0000 GAGE2                128                 
  SubCatchDFCR0007C        216.50   4098.20      1.59   10.0000 GAGE2                DFCR0007C           
  SubCatchDFCR0008A        121.80   2499.80      5.42   10.0000 GAGE2                134                 
  SubCatchDFCR0008C        129.70   2662.00      3.00   10.0000 GAGE2                DFCR0008C           
  SubCatchDFCR0009A         51.80    701.80      6.92   10.0000 GAGE2                141                 
  SubCatchDFCR0009B         19.20    260.10      6.16   10.0000 GAGE2                DFCR0009C           
  SubCatchDFCR0009C         71.90    974.10     14.30   10.0000 GAGE2                DFCR0009C           
  SubCatchDFCR8801A         47.30   1128.10      2.85   10.0000 GAGE2                DFCR8801AE          
  SubCatchDFCR8801C        114.90   2740.20      2.08   10.0000 GAGE2                DFCR8801C           
  SubCatchDFCR8901A          1.90     40.60      2.97    9.0000 GAGE2                DFCR8901AE          
  SubCatchDFCR8901C         76.10   1624.80      4.98    9.0000 GAGE2                DFCR8901C           
  SubCatchDFCR9001A         12.00    315.40      3.25    8.0000 GAGE2                181                 
  SubCatchDFCR9001C        129.60   3406.30     10.92    8.0000 GAGE2                DFCR9001C           
  SubCatchDFCR9101A         12.60    257.00      2.06    8.0000 GAGE2                DFCR9101AE          
  SubCatchDFCR9101C        115.50   2355.90      2.01    8.0000 GAGE2                DFCR9101C           
  SubCatchDFCR9201A          2.80    106.70      6.29    9.0000 GAGE2                DFCR9201AE          
  SubCatchDFCR9201C         85.80   3270.80      0.11    9.0000 GAGE2                DFCR9201C           
  SubCatchDFCR9301C         97.60   1953.30     13.59    7.0000 GAGE2                165                 
  SubCatchDFCR9401A         98.60   1035.60     55.45    6.0000 GAGE2                DFCR9401AE          
  SubCatchDFCR9401C        222.00   2331.80     40.34    6.0000 GAGE2                DFCR9401C           
  SubCatchDFCR9501A          0.80     17.50      6.30    8.0000 GAGE2                DFCR9501AE          
  SubCatchDFCR9501B         40.70    891.90      5.21    8.0000 GAGE2                DFCR9501AE          
  SubCatchDFCR9501C        136.30   2986.80      7.35    8.0000 GAGE2                DFCR9501C           
  SubCatchDFCR9601A         28.80    714.80     11.27    9.0000 GAGE2                DFCR9601AE          
  SubCatchDFCR9601B          5.30    131.60      4.75    9.0000 GAGE2                DFCR9601AE          
  SubCatchDFCR9601C        142.90   3546.90      7.71    9.0000 GAGE2                DFCR9601C           
  SubCatchDFCR9701A         29.30    751.20     29.89    7.0000 GAGE2                DFCR9701AE          
  SubCatchDFCR9701C        203.40   5214.50     13.35    7.0000 GAGE2                DFCR9701C           
  SubCatchDFCR9702A          2.40     99.30     30.15   13.0000 GAGE2                151                 
  SubCatchDFCR9702C         31.60   1308.10     26.84   13.0000 GAGE2                151                 
  SubCatchDFCR9703A         34.60   1315.80      8.90   12.0000 GAGE2                160                 
  SubCatchDFCR9703C         20.50    779.60     16.61   12.0000 GAGE2                DFCR9703C           
  SubCatchDFCR9801A         54.70   1052.10     11.34    7.0000 GAGE2                DFCR9801BE          
  SubCatchDFCR9801B         16.90    325.10      9.83    7.0000 GAGE2                DFCR9801BE          
  SubCatchDFCR9801C         60.40   1161.80     11.88    7.0000 GAGE2                DFCR9801BE          
  SubCatchDFCR9802A          5.10     66.50     31.80    7.0000 GAGE2                DFCR9902C           
  SubCatchDFCR9802B          0.10      1.30      0.00    7.0000 GAGE2                DFCR9902C           
  SubCatchDFCR9802C         90.50   1180.10     16.11    7.0000 GAGE2                DFCR9802C           
  SubCatchDFCR9902A         60.70   1325.20     10.90    9.0000 GAGE2                DFCR9902AE          
  SubCatchDFCR9902B          0.90     19.60      4.31    9.0000 GAGE2                DFCR9902AE          
  SubCatchDFCR9902C        112.50   2456.10     13.19    9.0000 GAGE2                DFCR9902C           
  SubCatchDFCR9903A          9.00    162.00     35.14    7.0000 GAGE2                DFCR2000C           
  SubCatchDFCR9903B          4.30     77.40     18.13    7.0000 GAGE2                DFCR2000C           
  SubCatchDFCR9903C        171.00   3077.40     15.33    7.0000 GAGE2                DFCR9903C           
  SubCatchDFCR9904A          8.00     87.80     26.68    9.0000 GAGE2                151                 
  SubCatchDFCR9904B          0.90      9.90     11.24    9.0000 GAGE2                151                 
  SubCatchDFCR9904C        100.00   1097.80     20.48    9.0000 GAGE2                DFCR9904C           
  SubCatchDFDF0001A         38.90    435.00     30.59    6.0000 GAGE2                DFDF0001AE          
  SubCatchDFDF0001B         16.00    178.90     38.64    6.0000 GAGE2                DFDF0001AE          
  SubCatchDFDF0001C        250.50   2800.90     19.69    6.0000 GAGE2                DFDF0001C           
  SubCatchDFDF0003A         10.00    138.80     68.59    6.0000 GAGE2                191                 
  SubCatchDFDF0003B         11.70    162.50     26.32    6.0000 GAGE2                189                 
  SubCatchDFDF0003C         71.00    985.80      7.98    6.0000 GAGE2                DFDF0003C           
  SubCatchDFDF0005A         31.10    170.40     70.71    5.0000 GAGE2                198                 
  SubCatchDFDF0005B         21.10    115.60     43.55    5.0000 GAGE2                192                 
  SubCatchDFDF0005C        189.40   1037.60     24.58    5.0000 GAGE2                DFDF0005C           
  SubCatchDFDF0007C        128.00   2238.00     21.42    8.0000 GAGE2                DFDF0007C           
  SubCatchDFDF0009A         53.70    914.10     66.48    7.0000 GAGE2                DFDF0009AE          
  SubCatchDFDF0009B          3.50     59.60     37.27    7.0000 GAGE2                DFDF0009AE          
  SubCatchDFDF0009C        137.50   2340.70     27.16    7.0000 GAGE2                DFDF0009C           
  SubCatchDFDF0011A          4.10     77.30     13.44    8.0000 GAGE2                209                 
  SubCatchDFDF0011B         11.30    213.10      7.62    8.0000 GAGE2                206                 
  SubCatchDFDF0011C        126.40   2383.30      3.48    8.0000 GAGE2                DFDF0011C           
  SubCatchDFDF0013A          4.30     85.80      2.35    9.0000 GAGE2                214                 
  SubCatchDFDF0013B          1.00     19.90      1.53    9.0000 GAGE2                215                 
  SubCatchDFDF0013C         93.40   1863.30      2.67    9.0000 GAGE2                DFDF0013C           
  SubCatchDFDF0015A         21.40    398.00      3.27   10.0000 GAGE2                221                 
  SubCatchDFDF0015B         18.40    342.20      2.27   10.0000 GAGE2                216                 
  SubCatchDFDF0015C        183.60   3414.40      2.21   10.0000 GAGE2                416                 
  SubCatchDFDF0017A         63.10    961.70      3.88   10.0000 GAGE2                224                 
  SubCatchDFDF0017B          7.20    109.70      2.18   10.0000 GAGE2                DFDF0017C           
  SubCatchDFDF0017C        129.90   1979.70      4.29   10.0000 GAGE2                DFDF0017C           
  SubCatchDFDF0019A         15.80    380.00      5.85   10.0000 GAGE2                DFDF1006C           
  SubCatchDFDF0019B          0.90     21.60      2.64   10.0000 GAGE2                231                 
  SubCatchDFDF0019C        169.80   4084.00      1.84   10.0000 GAGE2                DFDF0019C           
  SubCatchDFDF0021A         67.80   1567.70      3.13   10.0000 GAGE2                241                 
  SubCatchDFDF0021B          8.50    196.50      2.22   10.0000 GAGE2                243                 
  SubCatchDFDF0021C        204.20   4721.70      1.38   10.0000 GAGE2                DFDF0021C           
  SubCatchDFDF0023A         67.70    948.80      3.87   11.0000 GAGE2                255                 
  SubCatchDFDF0023B          2.30     32.20      0.12   11.0000 GAGE2                DFDF2000C           
  SubCatchDFDF0023C         59.50    833.90     13.01   11.0000 GAGE2                DFDF2000C           
  SubCatchDFDF0025B         39.20    611.10      0.46   10.0000 GAGE2                259                 
  SubCatchDFDF0025C        144.40   2251.00      3.20   10.0000 GAGE2                259                 
  SubCatchDFDF0027A          5.50    163.90      4.11   13.0000 GAGE2                271                 
  SubCatchDFDF0027B          4.70    140.10      3.38   13.0000 GAGE2                DFDF1018C           
  SubCatchDFDF0027C        155.80   4644.20      2.49   13.0000 GAGE2                DFDF0027C           
  SubCatchDFDF0029A         10.10    227.80      2.04   14.0000 GAGE2                281                 
  SubCatchDFDF0029B         18.90    426.30      2.23   14.0000 GAGE2                DFDF0029C           
  SubCatchDFDF0029C         55.80   1258.50      2.66   14.0000 GAGE2                DFDF0029C           
  SubCatchDFDF0031A         64.80   1341.00      2.67   12.0000 GAGE2                289                 
  SubCatchDFDF0031B          9.20    190.40      1.56   12.0000 GAGE2                285                 
  SubCatchDFDF0031C        129.70   2684.10      2.85   12.0000 GAGE2                DFDF0031C           
  SubCatchDFDF0033A         46.20    893.40      3.11    9.0000 GAGE2                738                 
  SubCatchDFDF0033B          4.40     85.10      1.03    9.0000 GAGE2                31                  
  SubCatchDFDF0033C        148.40   2869.60      2.99    9.0000 GAGE2                DFDF0033C           
  SubCatchDFDF0035A         11.00    213.90      4.78   10.0000 GAGE2                311                 
  SubCatchDFDF0035B          1.90     36.90      2.85   10.0000 GAGE2                DFDF0035CT          
  SubCatchDFDF0035C        285.50   5551.20      2.22   10.0000 GAGE2                DFDF0035C           
  SubCatchDFDF0037B          8.70     75.40      2.15    9.0000 GAGE2                314                 
  SubCatchDFDF0039A         69.90   1083.30      6.54   10.0000 GAGE2                327                 
  SubCatchDFDF0039B          5.20     80.60      1.66   10.0000 GAGE2                323                 
  SubCatchDFDF0039C        125.80   1949.70      3.36   10.0000 GAGE2                DFDF0039C           
  SubCatchDFDF0041A         24.70    642.90      5.23   10.0000 GAGE2                333                 
  SubCatchDFDF0041B         49.70   1293.70      1.73   10.0000 GAGE2                333                 
  SubCatchDFDF0041C        105.50   2746.20      2.98   10.0000 GAGE2                DFDF0041C           
  SubCatchDFDF0043A         42.20    511.50      5.91    7.0000 GAGE2                336                 
  SubCatchDFDF0043B          1.90     23.00      2.32    7.0000 GAGE2                341                 
  SubCatchDFDF0043C         66.70    808.40      3.74    7.0000 GAGE2                337                 
  SubCatchDFDF0045A         12.50    147.90     13.17   10.0000 GAGE2                343                 
  SubCatchDFDF0045B         22.80    269.70      4.58   10.0000 GAGE2                141                 
  SubCatchDFDF0045C        113.30   1340.20      5.82   10.0000 GAGE2                DFDF0045C           
  SubCatchDFDF0047A         17.80    315.20      4.92   10.0000 GAGE2                DFDF0045C           
  SubCatchDFDF0047B         55.20    977.60      2.28   10.0000 GAGE2                348                 
  SubCatchDFDF0047C        174.20   3085.10      2.86   10.0000 GAGE2                DFDF0047C           
  SubCatchDFDF0049A          3.50     76.00      5.60   13.0000 GAGE2                358                 
  SubCatchDFDF0051A         15.10    197.40      3.41   11.0000 GAGE2                DFDF1032C           
  SubCatchDFDF0051B          9.20    120.30      2.27   11.0000 GAGE2                368                 
  SubCatchDFDF0051C        211.90   2770.50      2.02   11.0000 GAGE2                DFDF0051C           
  SubCatchDFDF0053A          9.80    117.60      3.44   13.0000 GAGE2                377                 
  SubCatchDFDF0053B         10.70    128.40      1.90   13.0000 GAGE2                372                 
  SubCatchDFDF0053C        167.10   2005.40      2.45   13.0000 GAGE2                DFDF0053C           
  SubCatchDFDF0055A         14.20    228.70      1.91   14.0000 GAGE2                374                 
  SubCatchDFDF0055B         12.70    204.60      1.45   14.0000 GAGE2                1017                
  SubCatchDFDF0055C        210.40   3389.40      1.63   14.0000 GAGE2                DFDF0055C           
  SubCatchDFDF0057B          8.10    128.80      1.97   21.0000 GAGE2                390                 
  SubCatchDFDF5901A          3.70     70.80      3.87   12.0000 GAGE2                DFDF5901AE          
  SubCatchDFDF5901C        238.90   4568.40      2.12   12.0000 GAGE2                DFDF5901C           
  SubCatchDFDF5902A          4.00     50.10      4.00   12.0000 GAGE2                470                 
  SubCatchDFDF5902B          1.20     15.00      3.46   12.0000 GAGE2                470                 
  SubCatchDFDF5902C         86.70   1085.40      5.06   12.0000 GAGE2                DFDF5902C           
  SubCatchDFDF6102A         60.60   1229.40      3.36   11.0000 GAGE2                DFDF6102AE          
  SubCatchDFDF6102C        255.60   5185.60      3.36   11.0000 GAGE2                DFDF6102C           
  SubCatchDFDF6501A         34.60   1709.60      4.76   10.0000 GAGE2                DFDF6501AE          
  SubCatchDFDF6501C         72.40   3577.20      3.77   10.0000 GAGE2                DFDF6501C           
  SubCatchDFDF6701A         27.10    774.50      5.52   10.0000 GAGE2                DFDF6701AE          
  SubCatchDFDF6701B          2.60     74.30      2.61   10.0000 GAGE2                464                 
  SubCatchDFDF6701C         70.40   2012.00      7.40   10.0000 GAGE2                DFDF6701C           
  SubCatchDFDF6801A         19.90    515.70      2.82   12.0000 GAGE2                DFDF6801AE          
  SubCatchDFDF6801C         48.10   1246.60      4.01   12.0000 GAGE2                DFDF6801C           
  SubCatchDFDF6901A         22.60    456.60     41.15    8.0000 GAGE2                DFDF6901AE          
  SubCatchDFDF6901C        149.00   3010.70     24.25    8.0000 GAGE2                DFDF6901C           
  SubCatchDFDF6902A         18.10    209.90      7.56    8.0000 GAGE2                DFDF6902C           
  SubCatchDFDF6902C        279.80   3244.60      8.94    8.0000 GAGE2                DFDF6902C           
  SubCatchDFDF7102A         81.30   1688.70      2.74   10.0000 GAGE2                DFDF7102AE          
  SubCatchDFDF7102B         27.60    573.30      6.23   10.0000 GAGE2                DFDF7102AE          
  SubCatchDFDF7102C        134.50   2793.70      6.51   10.0000 GAGE2                DFDF7102C           
  SubCatchDFDF7301A         14.70    411.00      5.31   11.0000 GAGE2                446                 
  SubCatchDFDF7301B         27.70    774.60      2.23   11.0000 GAGE2                DFDF7301AE          
  SubCatchDFDF7301C         68.50   1915.40      3.88   11.0000 GAGE2                DFDF7301C           
  SubCatchDFDF7501A         20.30    407.90      2.08    9.0000 GAGE2                257                 
  SubCatchDFDF7501B          4.50     90.40      1.29    9.0000 GAGE2                258                 
  SubCatchDFDF7501C        216.10   4341.70      2.37    9.0000 GAGE2                DFDF1016C           
  SubCatchDFDF7701A         22.70    372.10      1.81   10.0000 GAGE2                246                 
  SubCatchDFDF7701C         60.00    983.60      2.88   10.0000 GAGE2                246                 
  SubCatchDFDF7901A         54.80   1933.10      3.52    9.0000 GAGE2                DFDF7901AE          
  SubCatchDFDF7901C         28.40   1001.90      7.84    9.0000 GAGE2                DFDF7901C           
  SubCatchDFDF8101A         37.30    834.40      4.53    9.0000 GAGE2                441                 
  SubCatchDFDF8101C         65.50   1465.20      3.88    9.0000 GAGE2                DFDF8101C           
  SubCatchDFDF8301B          5.10    157.50      2.59    8.0000 GAGE2                DFDF8301A           
  SubCatchDFDF8301C         98.70   3047.90      2.91    8.0000 GAGE2                DFDF8301C           
  SubCatchDFDF8501A          7.70    202.60      3.85    9.0000 GAGE2                DFDF8501AE          
  SubCatchDFDF8501C         46.10   1213.20      3.19    9.0000 GAGE2                DFDF8501C           
  SubCatchDFDF8701A         14.20    414.40      4.00    9.0000 GAGE2                DFDF8701AE          
  SubCatchDFDF8701C         40.60   1185.00      5.72    9.0000 GAGE2                DFDF8701C           
  SubCatchDFDF8901A         77.50   1275.80      4.01    9.0000 GAGE2                DFDFFH5             
  SubCatchDFDF8901B         32.90    541.60      2.35    9.0000 GAGE2                DFDFFH5             
  SubCatchDFDF8901C        198.80   3272.60      3.87    9.0000 GAGE2                DFDF8901C           
  SubCatchDFDF9101A         46.70   1216.20      4.40   10.0000 GAGE2                DFDF9101AE          
  SubCatchDFDF9101C         62.10   1617.20      4.99   10.0000 GAGE2                DFDF9101C           
  SubCatchDFDF9203A        111.80   1584.40      4.69    8.0000 GAGE2                DFDF9203AE          
  SubCatchDFDF9203C        201.10   2849.80      4.22    8.0000 GAGE2                DFDF9203C           
  SubCatchDFDF9303A         65.90   1207.10     18.82    8.0000 GAGE2                DFDF9303C           
  SubCatchDFDF9303B         26.40    483.60      2.49    8.0000 GAGE2                DFDF9303C           
  SubCatchDFDF9303C        223.00   4084.60      4.84    8.0000 GAGE2                DFDF9303C           
  SubCatchDFDF9501A         29.30    366.00     55.69    3.0000 GAGE2                DFDF9501AE          
  SubCatchDFDF9501C        106.90   1335.40     36.38    3.0000 GAGE2                DFDF9501C           
  SubCatchDFDF9502A         10.80     80.90     65.34    7.0000 GAGE2                403                 
  SubCatchDFDF9502C        179.60   1344.70     10.79    7.0000 GAGE2                DFDF9502C           
  SubCatchDFDF9701A         29.20    404.30     63.58    6.0000 GAGE2                DFDF9701AE          
  SubCatchDFDF9701C        121.80   1686.60     35.33    6.0000 GAGE2                DFDF9701C           
  SubCatchDFDF9901A          9.50    168.20     31.69    7.0000 GAGE2                DFDF9901AE          
  SubCatchDFDF9901C        232.30   4112.40     18.55    7.0000 GAGE2                DFDF9901C           
  SubCatchDFDG0002A         39.50    671.20      5.12    6.0000 GAGE2                DFDG0002C           
  SubCatchDFDG0002C        188.60   3204.60      4.02    6.0000 GAGE2                DFDG0002C           
  SubCatchDFDG0003A         14.70    421.30      3.73    8.0000 GAGE2                476                 
  SubCatchDFDG0003C         84.90   2433.40      5.94    8.0000 GAGE2                499                 
  SubCatchDFDG9901A         16.40    341.70      5.55    6.0000 GAGE2                DFDG9901C           
  SubCatchDFDG9901C        171.30   3568.90     12.13    6.0000 GAGE2                DFDG9901C           
  SubCatchDFGL0001A          0.50      6.30     22.33    6.0000 GAGE2                DFGL0001AE          
  SubCatchDFGL0001C        231.30   2909.80     11.53    6.0000 GAGE2                DFGL0001C           
  SubCatchDFGL0002A         32.70    601.00     10.05    8.0000 GAGE2                505                 
  SubCatchDFGL0002B          2.20     40.40      5.12    8.0000 GAGE2                521                 
  SubCatchDFGL0002C        240.00   4411.00      7.10    8.0000 GAGE2                DFGL0002C           
  SubCatchDFGL0004A         36.50    977.40      4.04    8.0000 GAGE2                DFGL0004AE          
  SubCatchDFGL0004C        309.50   8288.00      4.37    8.0000 GAGE2                DFGL0004C           
  SubCatchDFLD0001A          7.30    159.60      2.79    7.0000 GAGE2                550                 
  SubCatchDFLD0001C        180.80   3952.60      3.69    7.0000 GAGE2                DFLD0001C           
  SubCatchDFLD0002A          7.60    138.20      4.42    8.0000 GAGE2                555                 
  SubCatchDFLD0002C        194.60   3537.60      3.01    8.0000 GAGE2                DFLD0002C           
  SubCatchDFLD0003A         24.80    441.90      5.03    8.0000 GAGE2                DFLD0003CT          
  SubCatchDFLD0003B          0.30      5.30      1.37    8.0000 GAGE2                581                 
  SubCatchDFLD0003C        184.90   3295.00      3.48    8.0000 GAGE2                DFLD0003C           
  SubCatchDFLD0004B          3.70     65.30      2.39   10.0000 GAGE2                580                 
  SubCatchDFLD0004C        213.10   3762.60      2.15   10.0000 GAGE2                589                 
  SubCatchDFLD0005A          3.40    108.20      2.10    9.0000 GAGE2                602                 
  SubCatchDFLD0005B         28.50    907.00      1.45    9.0000 GAGE2                596                 
  SubCatchDFLD0005C        142.20   4525.60      1.28    9.0000 GAGE2                DFLD0005C           
  SubCatchDFLD0006A         68.90    777.30      2.83   10.0000 GAGE2                609                 
  SubCatchDFLD0006B         14.40    162.40      2.11   10.0000 GAGE2                608                 
  SubCatchDFLD0006C        217.60   2454.70      2.67   10.0000 GAGE2                DFLD0006C           
  SubCatchDFLD0007A         22.50    451.20      3.30   12.0000 GAGE2                613                 
  SubCatchDFLD0007B          5.60    112.30      1.39   12.0000 GAGE2                612                 
  SubCatchDFLD0007C         98.90   1983.20      2.49   12.0000 GAGE2                611                 
  SubCatchDFLD0008A         28.70    705.60      2.91   14.0000 GAGE2                624                 
  SubCatchDFLD0008C        158.40   3894.40      2.76   14.0000 GAGE2                628                 
  SubCatchDFLD9201A         28.00    755.20      3.24   12.0000 GAGE2                DFLD9201C           
  SubCatchDFLD9201C         22.50    606.80      3.69   12.0000 GAGE2                DFLD9201C           
  SubCatchDFLD9301A          6.20    138.20      5.32   10.0000 GAGE2                DFLD01              
  SubCatchDFLD9301C        112.30   2503.60      4.43   10.0000 GAGE2                DFLD01              
  SubCatchDFLD9401A          3.80    102.80      1.76    8.0000 GAGE2                DFLD9401C           
  SubCatchDFLD9401C        156.00   4218.60      4.74    8.0000 GAGE2                DFLD9401C           
  SubCatchDFLD9501A          6.50    226.20     10.85    8.0000 GAGE2                DFLD9501C           
  SubCatchDFLD9501C         86.20   2999.50      8.81    8.0000 GAGE2                DFLD9501C           
  SubCatchDFLD9601A          5.50    152.50     16.14    7.0000 GAGE2                DFLD9601C           
  SubCatchDFLD9601C         99.00   2744.30      7.38    7.0000 GAGE2                DFLD9601C           
  SubCatchDFLD9701A          9.60    158.60      4.10    7.0000 GAGE2                DFLDD69             
  SubCatchDFLD9701B         26.10    431.10      2.22    7.0000 GAGE2                DFLDD69             
  SubCatchDFLD9701C        189.10   3123.40      4.37    7.0000 GAGE2                DFLD9701C           
  SubCatchDFLD9801A         17.90    717.30      3.32    6.0000 GAGE2                DFLD9801C           
  SubCatchDFLD9801C         69.30   2776.80      2.42    6.0000 GAGE2                DFLD9801C           
  SubCatchDFLD9901A         12.20    326.40      7.48    6.0000 GAGE2                554                 
  SubCatchDFLD9901C        103.30   2763.40      5.31    6.0000 GAGE2                DFLD9901C           
  SubCatchDFOR0001A        106.40   1421.00     40.55    5.0000 GAGE2                707                 
  SubCatchDFOR0001C        212.90   2843.20     19.49    5.0000 GAGE2                DFOR0001C           
  SubCatchDFOR0002A         45.30    940.40     44.85    6.0000 GAGE2                682                 
  SubCatchDFOR0002C        120.00   2491.20     11.84    6.0000 GAGE2                686                 
  SubCatchDFOR0004A         16.70    303.10     10.48   10.0000 GAGE2                691                 
  SubCatchDFOR0004B         48.70    884.00      5.96   10.0000 GAGE2                693                 
  SubCatchDFOR0004C        181.20   3289.10      8.93   10.0000 GAGE2                692                 
  SubCatchDFOR0099A         96.80    938.80     64.87    6.0000 GAGE2                DFOR0099C           
  SubCatchDFOR0099C        153.30   1486.70     63.47    6.0000 GAGE2                DFOR0099C           
  SubCatchDFPB0001A         44.90     47.40     43.70    5.0000 GAGE2                DFPB0001AE          
  SubCatchDFPB0001B         14.00     14.80     17.83    5.0000 GAGE2                DFPB0001AE          
  SubCatchDFPB0001C        539.50    570.00     17.82    5.0000 GAGE2                DFPB0001C           
  SubCatchDFPB0002A         35.50    467.80      6.30   10.0000 GAGE2                712                 
  SubCatchDFPB0002B          5.30     69.80      7.98   10.0000 GAGE2                713                 
  SubCatchDFPB0002C        280.30   3693.40      7.63   10.0000 GAGE2                DFPB0002C           
  SubCatchDFPB0004A         47.70   1046.80      4.71   10.0000 GAGE2                731                 
  SubCatchDFPB0004B          8.40    184.30      3.92   10.0000 GAGE2                749                 
  SubCatchDFPB0004C        207.00   4542.70      3.96   10.0000 GAGE2                DFPB0004C           
  SubCatchDFPB0005A         62.60   1457.20      3.24   11.0000 GAGE2                DFPB1002C           
  SubCatchDFPB0005B          1.10     25.60      1.76   11.0000 GAGE2                754                 
  SubCatchDFPB0005C        166.50   3875.70      2.27   11.0000 GAGE2                736                 
  SubCatchDFPB9501A         13.10    368.70      3.43    9.0000 GAGE2                753                 
  SubCatchDFPB9501C         91.30   2569.90     10.72    9.0000 GAGE2                DFPB9501C           
  SubCatchDFPB9601A         14.30    260.20      3.65    9.0000 GAGE2                DFPB0003C           
  SubCatchDFPB9601B         36.70    667.90      2.32    9.0000 GAGE2                DFPB0003C           
  SubCatchDFPB9601C         42.30    769.80      8.59    9.0000 GAGE2                726                 
  SubCatchDFPB9701A         22.70    526.90      6.43    8.0000 GAGE2                DFPB9701C           
  SubCatchDFPB9701B         11.10    257.70      3.02    8.0000 GAGE2                DFPB9701C           
  SubCatchDFPB9701C        115.70   2685.80      6.67    8.0000 GAGE2                DFPB9701C           
  SubCatchDFPB9801A          5.20    113.50      7.02    5.0000 GAGE2                DFPB9801AE          
  SubCatchDFPB9801C         95.50   2084.30      8.42    5.0000 GAGE2                DFPB9801C           
  SubCatchDFPB9802A         11.10    129.60      4.30    8.0000 GAGE2                746                 
  SubCatchDFPB9802C        310.10   3619.70      7.00    8.0000 GAGE2                DFPB9802C           
  SubCatchDFPB9803A         19.60    360.30      4.25    8.0000 GAGE2                733                 
  SubCatchDFPB9803B          1.60     29.40      2.28    8.0000 GAGE2                DFPB0004C           
  SubCatchDFPB9803C        163.10   2997.90      4.10    8.0000 GAGE2                DFPB9803C           
  SubCatchDFPB9901A          8.80    137.10      5.51    8.0000 GAGE2                DFPB9901AE          
  SubCatchDFPB9901C        100.00   1557.60      5.81    8.0000 GAGE2                DFPB9901C           
  SubCatchDFPR0001A         28.10    424.10     18.17    6.0000 GAGE2                DFPR0001AE          
  SubCatchDFPR0001B         22.80    344.10     18.85    6.0000 GAGE2                DFPR0001AE          
  SubCatchDFPR0001C         85.90   1296.50     17.57    6.0000 GAGE2                DFPR0001C           
  SubCatchDFPR0002A         57.30   1220.60      7.21    8.0000 GAGE2                790                 
  SubCatchDFPR0002B         59.10   1258.90      3.22    8.0000 GAGE2                781                 
  SubCatchDFPR0002C         84.80   1806.40      7.96    8.0000 GAGE2                DFPR0002C           
  SubCatchDFPR0003A         70.70    964.30      5.02    6.0000 GAGE2                863                 
  SubCatchDFPR0003B         41.30    563.30      3.29    6.0000 GAGE2                797                 
  SubCatchDFPR0004A         40.00   1178.20      4.15    8.0000 GAGE2                811                 
  SubCatchDFPR0004B         48.80   1437.30      1.61    8.0000 GAGE2                809                 
  SubCatchDFPR0005A         22.70    546.30     23.15    8.0000 GAGE2                826                 
  SubCatchDFPR0005B         36.80    885.70      7.66    8.0000 GAGE2                827                 
  SubCatchDFPR0005C        131.10   3155.30      7.43    8.0000 GAGE2                DFPR0005C           
  SubCatchDFPR0006A         10.80    110.20      7.22    7.0000 GAGE2                835                 
  SubCatchDFPR0006B          3.40     34.70      2.33    7.0000 GAGE2                DFPR0006B           
  SubCatchDFPR0006C        178.60   1823.10      3.77    7.0000 GAGE2                836                 
  SubCatchDFPR0007A         39.30    778.80      2.82    8.0000 GAGE2                848                 
  SubCatchDFPR0007B         22.80    451.80      1.24    8.0000 GAGE2                845                 
  SubCatchDFPR0007C        164.90   3267.70      2.45    8.0000 GAGE2                847                 
  SubCatchDFPR9501A          2.30     79.80      3.50    7.0000 GAGE2                DFPR9501C           
  SubCatchDFPR9501C        109.90   3813.80      3.69    7.0000 GAGE2                DFPR9501C           
  SubCatchDFPR9602A         65.30   1723.60      6.08    6.0000 GAGE2                DFPR9602C           
  SubCatchDFPR9602B         15.70    414.40      2.41    6.0000 GAGE2                DFPR9602C           
  SubCatchDFPR9602C        109.80   2898.20      3.96    6.0000 GAGE2                DFPR9602C           
  SubCatchDFPR9701A         32.10    596.90     11.73    5.0000 GAGE2                867                 
  SubCatchDFPR9701C        212.80   3957.10      6.44    5.0000 GAGE2                DFPR9701C           
  SubCatchDFPR9801A         13.80    209.30      5.15    7.0000 GAGE2                DFPR9801AE          
  SubCatchDFPR9801C         66.90   1014.60      6.73    7.0000 GAGE2                DFPR9801C           
  SubCatchDFPR9901A          9.20    192.20      3.05    6.0000 GAGE2                DFPR9901C           
  SubCatchDFPR9901B         23.70    495.20      6.23    6.0000 GAGE2                DFPR9901C           
  SubCatchDFPR9901C         56.50   1180.40     10.86    6.0000 GAGE2                DFPR9901C           
  SubCatchDFRB0001A          8.70    157.20      5.14    7.0000 GAGE2                DFRB0001AE          
  SubCatchDFRB0001C        223.00   4030.10      4.69    7.0000 GAGE2                DFRB0001C           
  SubCatchDFRB0002A         80.10   1989.60      3.53   10.0000 GAGE2                890                 
  SubCatchDFRB0002B         20.60    511.70      2.12   10.0000 GAGE2                885                 
  SubCatchDFRB0002C        176.90   4394.10      3.42   10.0000 GAGE2                DFRB0002C           
  SubCatchDFRB0004A         50.00    370.10      5.91    6.0000 GAGE2                DFRB0004AE          
  SubCatchDFRB0004C        245.20   1814.80      5.88    6.0000 GAGE2                DFRB0004C           
  SubCatchDFRB0005A         40.80    411.00      9.24    6.0000 GAGE2                905                 
  SubCatchDFRB0005C        212.70   2142.90      7.57    6.0000 GAGE2                DFRB0005C           
  SubCatchDFRB0006A         23.40    224.20      5.22    8.0000 GAGE2                910                 
  SubCatchDFRB0006B          3.70     35.50      2.19    8.0000 GAGE2                DFRB0006C           
  SubCatchDFRB0006C        199.30   1909.60      3.93    8.0000 GAGE2                DFRB0006C           
  SubCatchDFRB0007A         26.40    282.10      7.50    9.0000 GAGE2                DFRB0007C           
  SubCatchDFRB0007B         35.80    382.50      3.89    9.0000 GAGE2                DFRB0007C           
  SubCatchDFRB0007C        144.50   1543.90      4.39    9.0000 GAGE2                DFRB0007C           
  SubCatchDFRB0008A         28.80    805.30      3.41   11.0000 GAGE2                924                 
  SubCatchDFRB0008B         25.50    713.00      1.93   11.0000 GAGE2                925                 
  SubCatchDFRB0008C         54.60   1526.70      3.91   11.0000 GAGE2                DFRB0008C           
  SubCatchDFRB9801A         39.30    459.30     36.75    6.0000 GAGE2                DFRB9801AE          
  SubCatchDFRB9801C        183.00   2138.80     10.41    6.0000 GAGE2                DFRB9801C           
  SubCatchDFRB9802A         28.50    730.90      3.05   10.0000 GAGE2                941                 
  SubCatchDFRB9802C         85.80   2200.40      3.43   10.0000 GAGE2                DFRB9802C           
  SubCatchDFRB9901A        103.60   1493.00     16.44    6.0000 GAGE2                DFRB9901C           
  SubCatchDFRB9901B         20.40    294.00      4.93    6.0000 GAGE2                DFRB9901C           
  SubCatchDFRB9901C        106.30   1532.00     10.40    6.0000 GAGE2                DFRB9901C           
  SubCatchDFRR0001A         85.10    373.90     69.67    6.0000 GAGE2                DFRR0001AE          
  SubCatchDFRR0001C        150.70    662.00     58.07    6.0000 GAGE2                DFRR0001C           
  SubCatchDFRR0002A          7.30     71.40     16.79    6.0000 GAGE2                952                 
  SubCatchDFRR0002C        114.70   1122.00      8.43    6.0000 GAGE2                DFRR0002C           
  SubCatchDFRR0003A        100.50   1305.90      4.74    6.0000 GAGE2                956                 
  SubCatchDFRR0003C        104.70   1360.50      4.89    6.0000 GAGE2                DFRR0003C           
  SubCatchDFRR0004A          4.70    202.90      4.10   13.0000 GAGE2                DFRR9801C           
  SubCatchDFRR0004B          1.60     69.10      2.31   13.0000 GAGE2                962                 
  SubCatchDFRR0004C         88.20   3808.20      2.06   13.0000 GAGE2                DFRR0004C           
  SubCatchDFRR0005A         12.10    246.20      1.62   13.0000 GAGE2                983                 
  SubCatchDFRR0005B          7.10    144.40      1.08   13.0000 GAGE2                983                 
  SubCatchDFRR0005C        142.30   2895.00      2.25   13.0000 GAGE2                DFRR0005C           
  SubCatchDFRR0006A         21.30    531.90      3.57   13.0000 GAGE2                1002                
  SubCatchDFRR0007A         13.20    504.10      1.89   16.0000 GAGE2                1006                
  SubCatchDFRR0007B         11.20    427.70      1.28   16.0000 GAGE2                1016                
  SubCatchDFRR0007C         87.90   3356.70      1.79   16.0000 GAGE2                DFRR0007C           
  SubCatchDFRR9401A         12.40    301.60      2.30   12.0000 GAGE2                DFRR9401A           
  SubCatchDFRR9401C         82.60   2009.40      1.53   12.0000 GAGE2                DFRR9401C           
  SubCatchDFRR9501A         16.50    400.30      3.51   13.0000 GAGE2                DFRR9501C           
  SubCatchDFRR9501C         90.90   2205.00      3.24   13.0000 GAGE2                DFRR9501C           
  SubCatchDFRR9601C         69.60   1616.60      3.88    9.0000 GAGE2                DFRR9601C           
  SubCatchDFRR9702A          1.60     29.90     14.29    9.0000 GAGE2                973                 
  SubCatchDFRR9702B          3.10     57.90      4.43    9.0000 GAGE2                973                 
  SubCatchDFRR9702C        167.00   3118.20      2.90    9.0000 GAGE2                973                 
  SubCatchDFRR9801A         11.90    120.20      3.02    5.0000 GAGE2                DFRR9801A           
  SubCatchDFRR9801C         98.80    998.10      5.89    5.0000 GAGE2                DFRR9801C           
  SubCatchDFSB0001A         56.50    610.80     20.94    7.0000 GAGE2                DFSB0001C           
  SubCatchDFSB0001B         13.80    149.20     56.85    7.0000 GAGE2                DFSB0001C           
  SubCatchDFSB0001C        198.60   2146.90     24.78    7.0000 GAGE2                DFSB0001C           
  SubCatchDFSB0002A         14.10    254.30     30.09    8.0000 GAGE2                1030                
  SubCatchDFSB0002C        227.90   4109.50     11.39    8.0000 GAGE2                1029                
  SubCatchDFSB0004A        147.40   2725.30     17.91    8.0000 GAGE2                1040                
  SubCatchDFSB0004B          6.90    127.60     13.35    8.0000 GAGE2                DFSB0004AE          
  SubCatchDFSB0004C        230.80   4267.30      8.96    8.0000 GAGE2                DFSB0004C           
  SubCatchDFSB0006A         76.00   3251.60      4.74   14.0000 GAGE2                1051                
  SubCatchDFSB0006B          3.80    162.60      1.83   14.0000 GAGE2                1055                
  SubCatchDFSB0006C         97.40   4167.10      3.16   14.0000 GAGE2                1053                
  SubCatchDFSB9201A         32.30    928.60      4.22    9.0000 GAGE2                DFSB9201C           
  SubCatchDFSB9201C         81.70   2348.70      4.91    9.0000 GAGE2                DFSB9201C           
  SubCatchDFSB9301A         43.60   1211.40     17.14   11.0000 GAGE2                DFSB9301AE          
  SubCatchDFSB9301C        101.90   2831.30      9.94   11.0000 GAGE2                DFSB9301C           
  SubCatchDFSB9402A        117.40   1668.80     28.68    9.0000 GAGE2                DFSB9402C           
  SubCatchDFSB9402B         10.50    149.30     57.32    9.0000 GAGE2                DFSB9402C           
  SubCatchDFSB9402C        170.60   2425.00     28.49    9.0000 GAGE2                DFSB9402C           
  SubCatchDFSB9501A        120.10   1360.20     37.45    6.0000 GAGE2                DFSB9501AE          
  SubCatchDFSB9501B          6.90     78.10     55.68    6.0000 GAGE2                DFSB9501AE          
  SubCatchDFSB9501C        230.60   2611.80     19.68    6.0000 GAGE2                DFSB9501C           
  SubCatchDFSB9901A         22.30    514.90     22.29    7.0000 GAGE2                DFSB9901AE          
  SubCatchDFSB9901C        227.90   5262.00     11.22    7.0000 GAGE2                DFSB9901C           
  SubCatchDFSF0001A         10.70    161.70      3.67    8.0000 GAGE2                DFSF0001AE          
  SubCatchDFSF0001C        191.50   2893.50      3.22    8.0000 GAGE2                DFSF0001C           
  SubCatchDFSF0002A          2.80     89.10      5.36    9.0000 GAGE2                1254                
  SubCatchDFSF0002C        108.20   3441.10      3.25    9.0000 GAGE2                1250                
  SubCatchDFSF0003A         75.40    781.00      2.97    8.0000 GAGE2                1256                
  SubCatchDFSF0003B         55.40    573.90      2.19    8.0000 GAGE2                1256                
  SubCatchDFSF0003C         84.20    872.20      6.35    8.0000 GAGE2                DFSF0003C           
  SubCatchDFSF0004A         20.10    309.90      4.27    9.0000 GAGE2                DFSF0004AE          
  SubCatchDFSF0004B         40.50    624.40      2.08    9.0000 GAGE2                1260                
  SubCatchDFSF0004C        107.70   1660.50      4.05    9.0000 GAGE2                DFSF0004AE          
  SubCatchDFSF0005A         19.30    408.00      5.12    8.0000 GAGE2                DFSF0005C           
  SubCatchDFSF0005B         19.60    414.40      1.72    8.0000 GAGE2                DFSF0005C           
  SubCatchDFSF0005C         80.50   1701.90      3.14    8.0000 GAGE2                DFSF0005C           
  SubCatchDFSF0006A         18.20    417.50      3.98   11.0000 GAGE2                1275                
  SubCatchDFSF0006B         56.70   1300.60      1.73   11.0000 GAGE2                1277                
  SubCatchDFSF0006C        160.10   3672.30      2.91   11.0000 GAGE2                1276                
  SubCatchDFSF9701A         29.10    742.90      3.98    8.0000 GAGE2                DFSF9701AE          
  SubCatchDFSF9701C         87.80   2241.30      3.99    8.0000 GAGE2                DFSF9701C           
  SubCatchDFSF9802A         13.90    277.10      3.35    9.0000 GAGE2                DFSF9802AE          
  SubCatchDFSF9802C        248.20   4948.50      3.61    9.0000 GAGE2                DFSF9802AE          
  SubCatchDFSF9902A         56.70    689.40      4.60    8.0000 GAGE2                DFSF9902AE          
  SubCatchDFSF9902C        258.30   3140.40      4.74    8.0000 GAGE2                DFSF9902C           
  SubCatchDFSP0001A         22.10    570.40      3.87   11.0000 GAGE2                1087                
  SubCatchDFSP0001C        122.60   3164.50      3.11   11.0000 GAGE2                1087                
  SubCatchDFSP0002A          4.00    103.80      5.20   11.0000 GAGE2                1083                
  SubCatchDFSP0002B          8.10    210.20      2.86   11.0000 GAGE2                1083                
  SubCatchDFSP0002C         55.60   1443.10      3.28   11.0000 GAGE2                DFSP0002C           
  SubCatchDFSP9901A          6.60     96.40      4.72    7.0000 GAGE2                DFSP9901AE          
  SubCatchDFSP9901C        196.40   2869.00      2.89    7.0000 GAGE2                DFSP9901C           
  SubCatchDFWC0001A         66.30    530.70     30.13    4.0000 GAGE2                DFWC0001AE          
  SubCatchDFWC0001C        223.80   1791.30     33.01    4.0000 GAGE2                DFWC0001C           
  SubCatchDFWC0002A         80.10    745.80     25.19    5.0000 GAGE2                DFWC0002A           
  SubCatchDFWC0002B         36.40    338.90      7.70    5.0000 GAGE2                1114                
  SubCatchDFWC0002C        143.80   1338.90      9.52    5.0000 GAGE2                1108                
  SubCatchDFWC0003A         21.10    483.70     25.47    5.0000 GAGE2                1128                
  SubCatchDFWC0003C        114.20   2617.70      7.37    5.0000 GAGE2                DFWC0003C           
  SubCatchDFWC0004A         60.10   1295.00     23.00    5.0000 GAGE2                1133                
  SubCatchDFWC0004B          5.70    122.80     17.03    5.0000 GAGE2                1136                
  SubCatchDFWC0004C        287.80   6201.30     17.53    5.0000 GAGE2                DFWC0004C           
  SubCatchDFWC0005A         25.60    412.60      7.17    7.0000 GAGE2                1145                
  SubCatchDFWC0005B         10.50    169.20      2.90    7.0000 GAGE2                1145                
  SubCatchDFWC0005C        318.80   5138.20      5.60    7.0000 GAGE2                DFWC0005C           
  SubCatchDFWC0008A         24.10    345.10      9.68    9.0000 GAGE2                1164                
  SubCatchDFWC0008B          9.90    141.80      6.19    9.0000 GAGE2                1158                
  SubCatchDFWC0009A         53.70   1545.50      6.15   11.0000 GAGE2                1177                
  SubCatchDFWC0009B          4.50    129.50      4.92   11.0000 GAGE2                1170                
  SubCatchDFWC0009C         57.10   1643.30     34.96   11.0000 GAGE2                DFWC0009C           
  SubCatchDFWC0010A         42.60    544.40     15.51   10.0000 GAGE2                1183                
  SubCatchDFWC0010B         13.10    167.40      5.43   10.0000 GAGE2                1189                
  SubCatchDFWC0010C        114.10   1458.00      6.65   10.0000 GAGE2                DFWC0010C           
  SubCatchDFWC0011A         25.70    214.80     21.74   10.0000 GAGE2                1193                
  SubCatchDFWC0011B         32.50    271.60      3.88   10.0000 GAGE2                1193                
  SubCatchDFWC0011C        153.40   1281.90      8.29   10.0000 GAGE2                DFWC0011C           
  SubCatchDFWC0012A         11.00    354.80      3.64   10.0000 GAGE2                1206                
  SubCatchDFWC0012B          9.10    293.50      1.45   10.0000 GAGE2                1207                
  SubCatchDFWC0012C        188.20   6070.70      3.11   10.0000 GAGE2                1203                
  SubCatchDFWC0015A         85.70   2120.20      4.09   10.0000 GAGE2                332                 
  SubCatchDFWC0015C        132.40   3275.60      2.63   10.0000 GAGE2                332                 
  SubCatchDFWC8901A          5.10    232.50      6.48   10.0000 GAGE2                DFWC8901C           
  SubCatchDFWC8901C         48.30   2201.60      2.67   10.0000 GAGE2                DFWC8901C           
  SubCatchDFWC9001A         11.70    347.30      4.79    8.0000 GAGE2                1215                
  SubCatchDFWC9001C         60.60   1798.70      2.84    8.0000 GAGE2                1215                
  SubCatchDFWC9101A          1.20     16.20      2.66    8.0000 GAGE2                DFWC9101B           
  SubCatchDFWC9101C         92.40   1250.10     15.58    8.0000 GAGE2                DFWC9101C           
  SubCatchDFWC9201A         36.80    850.70      6.87    8.0000 GAGE2                1203                
  SubCatchDFWC9201B          2.10     48.50      2.57    8.0000 GAGE2                1203                
  SubCatchDFWC9201C        119.20   2755.50      6.56    8.0000 GAGE2                DFWC9201C           
  SubCatchDFWC9301A          7.60    126.40      5.68    8.0000 GAGE2                DFWC9301C           
  SubCatchDFWC9301C        104.80   1743.60      6.08    8.0000 GAGE2                DFWC9301C           
  SubCatchDFWC9401A         10.60    291.30      4.66    7.0000 GAGE2                DFWC9401AE          
  SubCatchDFWC9401C        102.60   2819.20      9.59    7.0000 GAGE2                DFWC9401C           
  SubCatchDFWC9501A          8.40    191.70      4.22    7.0000 GAGE2                1157                
  SubCatchDFWC9501B          3.60     82.20      1.89    7.0000 GAGE2                1157                
  SubCatchDFWC9501C         84.40   1926.10      3.19    7.0000 GAGE2                1157                
  SubCatchDFWC9801A         39.40    594.90      8.64    5.0000 GAGE2                DFWC9801AE          
  SubCatchDFWC9801B         31.60    477.10      5.35    5.0000 GAGE2                DFWC9801AE          
  SubCatchDFWC9801C        186.90   2822.00      7.96    5.0000 GAGE2                DFWC9801C           
  SubCatchDFWC9802A        133.90   2433.60      2.49    5.0000 GAGE2                DFWC2001C           
  SubCatchDFWC9802C         16.30    296.30     19.11    5.0000 GAGE2                1155                
  
  
  ************
  Node Summary
  ************
                                           Invert      Max.    Ponded    External
  Name                 Type                 Elev.     Depth      Area    Inflow  
  -------------------------------------------------------------------------------
  1                    JUNCTION            307.42     29.00      20.0
  2                    JUNCTION            305.01     29.00      20.0
  3                    JUNCTION            300.75     25.02      20.0
  4                    JUNCTION            297.04     25.02      20.0
  5                    JUNCTION            291.48     25.98      20.0
  6                    JUNCTION            287.89     25.98      20.0
  7                    JUNCTION            284.85     25.98      20.0
  8                    JUNCTION            279.93     25.98      20.0
  9                    JUNCTION            277.58     25.42      20.0
  11                   JUNCTION            274.58     24.23      20.0
  12                   JUNCTION            264.83     24.23      20.0
  13                   JUNCTION            261.91     24.23      20.0
  14                   JUNCTION            258.85     26.55      20.0
  15                   JUNCTION            255.94     26.55      20.0
  16                   JUNCTION            253.79     18.77      20.0
  17                   JUNCTION            252.02     18.77      20.0
  18                   JUNCTION            249.74     20.31      20.0
  19                   JUNCTION            245.92     20.31      20.0
  20                   JUNCTION            243.42     20.31      20.0
  21                   JUNCTION            240.36     20.31      20.0
  22                   JUNCTION            239.04     20.31      20.0
  23                   JUNCTION            238.19     20.31      20.0
  24                   JUNCTION            237.41     20.31      20.0
  25                   JUNCTION            235.70     33.78      20.0
  26                   JUNCTION            232.70     17.35      20.0
  27                   JUNCTION            231.45     17.35      20.0
  29                   JUNCTION            228.45     43.57      20.0
  30                   JUNCTION            224.78     43.57      20.0
  31                   JUNCTION            214.00     65.36      20.0
  37                   JUNCTION            275.85     49.34      20.0
  38                   JUNCTION            267.14     30.67      20.0
  39                   JUNCTION            265.05     26.21      20.0
  40                   JUNCTION            261.87     26.21      20.0
  41                   JUNCTION            258.89     26.21      20.0
  42                   JUNCTION            250.77     26.21      20.0
  44                   JUNCTION            247.89     26.21      20.0
  46                   JUNCTION            244.92     26.21      20.0
  47                   JUNCTION            243.54     26.21      20.0
  48                   JUNCTION            242.45     26.21      20.0
  49                   JUNCTION            240.35     23.90      20.0
  50                   JUNCTION            236.60     21.05      20.0
  52                   JUNCTION            233.34     40.97      20.0
  53                   JUNCTION            232.91     40.97      20.0
  54                   JUNCTION            227.68     40.97      20.0
  56                   JUNCTION            221.70     40.97      20.0
  57                   JUNCTION            224.03     40.97      20.0
  59                   JUNCTION            221.51     46.92      20.0
  60                   JUNCTION            220.51     46.92      20.0
  61                   JUNCTION            221.00     46.92      20.0
  62                   JUNCTION            215.26     40.54      20.0
  63                   JUNCTION            214.19     42.08      20.0
  64                   JUNCTION            213.55     42.08      20.0
  65                   JUNCTION            213.00     42.08      20.0
  66                   JUNCTION            219.25     40.54      20.0
  67                   JUNCTION            211.29     42.08      20.0
  68                   JUNCTION            210.52     42.08      20.0
  69                   JUNCTION            207.00     48.35      20.0
  70                   JUNCTION            206.59     42.87      20.0
  71                   JUNCTION            177.04     29.18      20.0
  73                   JUNCTION            234.35     21.67      20.0
  76                   JUNCTION            227.18     21.67      20.0
  77                   JUNCTION            225.00     21.67      20.0
  78                   JUNCTION            224.75     21.67      20.0
  79                   JUNCTION            220.51     21.67      20.0
  80                   JUNCTION            230.84     25.28      20.0
  81                   JUNCTION            220.51     25.28      20.0
  83                   JUNCTION            227.00     48.99      20.0
  84                   JUNCTION            344.91     10.39      20.0
  85                   JUNCTION            341.56     10.39      20.0
  86                   JUNCTION            337.84     10.39      20.0
  87                   JUNCTION            331.20     16.57      20.0
  88                   JUNCTION            319.10     33.76      20.0
  89                   JUNCTION            317.39     37.77      20.0
  90                   JUNCTION            312.70     37.77      20.0
  91                   JUNCTION            312.31     37.65      20.0
  93                   JUNCTION            311.40     37.65      20.0
  94                   JUNCTION            310.25     37.65      20.0
  95                   JUNCTION            307.20     37.65      20.0
  96                   JUNCTION            303.87     37.65      20.0
  97                   JUNCTION            302.49     44.63      20.0
  98                   JUNCTION            301.00     49.96      20.0
  99                   JUNCTION            290.64     49.96      20.0
  101                  JUNCTION            287.45     49.96      20.0
  102                  JUNCTION            283.17     49.96      20.0
  103                  JUNCTION            278.63     36.79      20.0
  104                  JUNCTION            276.21     51.99      20.0
  105                  JUNCTION            274.03     51.99      20.0
  106                  JUNCTION            271.69     59.44      20.0
  108                  JUNCTION            268.47     50.65      20.0
  109                  JUNCTION            266.86     53.17      20.0
  111                  JUNCTION            264.70     43.57      20.0
  112                  JUNCTION            264.67     43.57      20.0
  113                  JUNCTION            264.67     31.33      20.0
  114                  JUNCTION            237.27     22.97      20.0
  116                  JUNCTION            236.00     80.01      20.0
  117                  JUNCTION            235.05     80.01      20.0
  118                  JUNCTION            234.99     80.01      20.0
  119                  JUNCTION            233.00     80.01      20.0
  120                  JUNCTION            230.23     37.60      20.0
  121                  JUNCTION            227.00     48.99      20.0
  122                  JUNCTION            227.61     37.60      20.0
  123                  JUNCTION            228.32     37.60      20.0
  126                  JUNCTION            226.10      0.00      20.0
  127                  JUNCTION            223.54     58.62      20.0
  128                  JUNCTION            221.79     58.62      20.0
  129                  JUNCTION            221.50     38.02      20.0
  130                  JUNCTION            216.16     55.40      20.0
  131                  JUNCTION            214.60     55.40      20.0
  132                  JUNCTION            212.96     55.40      20.0
  133                  JUNCTION            210.96     52.86      20.0
  134                  JUNCTION            207.66     33.12      20.0
  135                  JUNCTION            206.40     33.12      20.0
  136                  JUNCTION            202.42     25.15      20.0
  137                  JUNCTION            202.00     33.06      20.0
  138                  JUNCTION            192.69     33.06      20.0
  139                  JUNCTION            194.82     33.06      20.0
  140                  JUNCTION            191.07     34.26      20.0
  141                  JUNCTION            191.00     34.26      20.0
  142                  JUNCTION            190.50     34.26      20.0
  143                  JUNCTION            184.26     18.39      20.0
  144                  JUNCTION            185.00     18.39      20.0
  145                  JUNCTION            189.10     34.26      20.0
  146                  JUNCTION            187.07     34.26      20.0
  147                  JUNCTION            186.87     18.39      20.0
  148                  JUNCTION            186.00     18.39      20.0
  150                  JUNCTION            291.16     39.11      20.0
  151                  JUNCTION            288.71     42.68      20.0
  152                  JUNCTION            294.29     42.68      20.0
  153                  JUNCTION            301.17      1.00      20.0
  154                  JUNCTION            289.62     42.68      20.0
  156                  JUNCTION            277.60     36.63      20.0
  157                  JUNCTION            275.39     35.75      20.0
  158                  JUNCTION            272.01     38.01      20.0
  159                  JUNCTION            269.28     38.01      20.0
  160                  JUNCTION            265.90     39.50      20.0
  161                  JUNCTION            265.85      1.00      20.0
  163                  JUNCTION            338.51     16.57      20.0
  164                  JUNCTION            331.20      1.00      20.0
  165                  JUNCTION            283.17     42.69      20.0
  166                  JUNCTION            277.43     59.44      20.0
  167                  JUNCTION            271.69     22.83      20.0
  168                  JUNCTION            273.21     41.02      20.0
  169                  JUNCTION            268.28     41.02      20.0
  170                  JUNCTION            263.64     41.02      20.0
  171                  JUNCTION            260.19     41.02      20.0
  172                  JUNCTION            244.63     30.86      20.0
  173                  JUNCTION            262.20      1.00      20.0
  174                  JUNCTION            227.00     22.97      20.0
  175                  JUNCTION            212.96      0.00      20.0
  177                  JUNCTION            224.74     33.29      20.0
  178                  JUNCTION            231.84     33.29      20.0
  179                  JUNCTION            206.40     29.81      20.0
  181                  JUNCTION            234.00     22.97      20.0
  184                  JUNCTION            367.66     41.75      20.0
  185                  JUNCTION            365.22     41.75      20.0
  189                  JUNCTION            357.55     22.45      20.0
  191                  JUNCTION            357.36     14.39      20.0
  192                  JUNCTION            355.25     14.39      20.0
  193                  JUNCTION            390.16     19.23      20.0
  198                  JUNCTION            347.21     40.53      20.0
  199                  JUNCTION            344.34     40.53      20.0
  1C                   JUNCTION            290.17     54.69      20.0
  201                  JUNCTION            343.50     45.02      20.0
  204                  JUNCTION            354.08     23.11      20.0
  205                  JUNCTION            333.04     24.74      20.0
  206                  JUNCTION            338.70     45.02      20.0
  209                  JUNCTION            338.25     45.02      20.0
  211                  JUNCTION            329.66     30.61      20.0
  212                  JUNCTION            326.38     30.61      20.0
  213                  JUNCTION            324.48     23.43      20.0
  214                  JUNCTION            322.44     26.76      20.0
  215                  JUNCTION            317.67     25.27      20.0
  216                  JUNCTION            308.73     27.71      20.0
  221                  JUNCTION            308.63     24.10      20.0
  222                  JUNCTION            298.42     24.10      20.0
  223                  JUNCTION            298.00     24.10      20.0
  224                  JUNCTION            295.25     24.25      20.0
  225                  JUNCTION            295.00     27.74      20.0
  226                  JUNCTION            293.05     27.74      20.0
  227                  JUNCTION            290.88     31.27      20.0
  229                  JUNCTION            289.62     30.17      20.0
  230                  JUNCTION            289.00     30.17      20.0
  231                  JUNCTION            283.66     59.44      20.0
  232                  JUNCTION            281.27      0.00      20.0
  233                  JUNCTION            280.45     22.92      20.0
  234                  JUNCTION            279.58     36.37      20.0
  235                  JUNCTION            281.04     43.72      20.0
  236                  JUNCTION            276.44     36.63      20.0
  238                  JUNCTION            275.23     28.54      20.0
  239                  JUNCTION            275.00     28.50      20.0
  241                  JUNCTION            271.01     26.78      20.0
  243                  JUNCTION            270.42     23.57      20.0
  244                  JUNCTION            261.61     22.52      20.0
  246                  JUNCTION            261.48     23.57      20.0
  254                  JUNCTION            256.05     69.41      20.0
  255                  JUNCTION            256.72     69.41      20.0
  256                  JUNCTION            255.18     69.41      20.0
  257                  JUNCTION            251.07     69.41      20.0
  258                  JUNCTION            249.01     69.41      20.0
  259                  JUNCTION            246.79     30.27      20.0
  265                  JUNCTION            243.29     38.30      20.0
  266                  JUNCTION            242.10     38.30      20.0
  267                  JUNCTION            240.81     30.77      20.0
  270                  JUNCTION            234.71     34.25      20.0
  271                  JUNCTION            234.00     34.25      20.0
  273                  JUNCTION            233.79     32.43      20.0
  274                  JUNCTION            237.73     69.41      20.0
  275                  JUNCTION            236.33     37.21      20.0
  276                  JUNCTION            236.00     34.49      20.0
  280                  JUNCTION            228.00     61.36      20.0
  281                  JUNCTION            226.70     37.21      20.0
  282                  JUNCTION            225.95     28.52      20.0
  283                  JUNCTION            223.17     28.52      20.0
  285                  JUNCTION            222.58     32.38      20.0
  286                  JUNCTION            221.74     32.38      20.0
  287                  JUNCTION            221.00     32.38      20.0
  289                  JUNCTION            219.00     37.63      20.0
  291                  JUNCTION            217.81      0.00      20.0
  292                  JUNCTION            216.78     47.76      20.0
  293                  JUNCTION            216.70     41.32      20.0
  295                  JUNCTION            215.63     25.27      20.0
  296                  JUNCTION            214.64     65.36      20.0
  297                  JUNCTION            215.03      0.00      20.0
  301                  JUNCTION            210.33     29.30      20.0
  302                  JUNCTION            210.17     40.51      20.0
  303                  JUNCTION            208.96     29.50      20.0
  304                  JUNCTION            207.54      1.00      20.0
  305                  JUNCTION            207.12     29.50      20.0
  306                  JUNCTION            205.36     48.35      20.0
  307                  JUNCTION            203.69     30.07      20.0
  308                  JUNCTION            202.94     37.06      20.0
  309                  JUNCTION            202.00     37.06      20.0
  310                  JUNCTION            228.54     30.07      20.0
  311                  JUNCTION            199.50     32.59      20.0
  312                  JUNCTION            199.00     35.04      20.0
  314                  JUNCTION            198.00     35.04      20.0
  316                  JUNCTION            196.30     55.49      20.0
  318                  JUNCTION            197.11     35.04      20.0
  320                  JUNCTION            195.96     55.49      20.0
  321                  JUNCTION            195.50     67.43      20.0
  322                  JUNCTION            195.13     67.43      20.0
  323                  JUNCTION            193.67     67.43      20.0
  324                  JUNCTION            193.50     41.59      20.0
  325                  JUNCTION            193.25     59.27      20.0
  326                  JUNCTION            193.20     59.27      20.0
  327                  JUNCTION            192.50     59.27      20.0
  329                  JUNCTION            191.77     33.72      20.0
  330                  JUNCTION            191.11     28.01      20.0
  331                  JUNCTION            190.11     28.01      20.0
  332                  JUNCTION            189.29     28.01      20.0
  333                  JUNCTION            188.00     65.28      20.0
  335                  JUNCTION            182.40     51.86      20.0
  336                  JUNCTION            184.41     44.67      20.0
  337                  JUNCTION            183.46     44.67      20.0
  341                  JUNCTION            182.26     51.86      20.0
  343                  JUNCTION            180.00     47.71      20.0
  344                  JUNCTION            179.00     45.52      20.0
  345                  JUNCTION            176.00     45.52      20.0
  347                  JUNCTION            174.37     39.36      20.0
  348                  JUNCTION            173.29     39.36      20.0
  349                  JUNCTION            172.09     39.36      20.0
  350                  JUNCTION            172.00     39.36      20.0
  351                  JUNCTION            171.00     44.83      20.0
  352                  JUNCTION            170.17     71.32      20.0
  353                  JUNCTION            170.00     71.32      20.0
  354                  JUNCTION            168.68     37.38      20.0
  358                  JUNCTION            167.52     37.24      20.0
  359                  JUNCTION            166.95     37.24      20.0
  361                  JUNCTION            166.50     51.96      20.0
  362                  JUNCTION            164.44     32.30      20.0
  364                  JUNCTION            163.96     46.61      20.0
  368                  JUNCTION            162.65     40.53      20.0
  369                  JUNCTION            162.50     40.41      20.0
  372                  JUNCTION            160.22     58.82      20.0
  373                  JUNCTION            159.77     58.82      20.0
  374                  JUNCTION            159.17     58.82      20.0
  375                  JUNCTION            158.18     58.82      20.0
  376                  JUNCTION            156.89     67.67      20.0
  377                  JUNCTION            160.98     40.41      20.0
  379                  JUNCTION            154.99     70.23      20.0
  380                  JUNCTION            154.90     70.23      20.0
  381                  JUNCTION            152.00     67.67      20.0
  383                  JUNCTION            154.50     67.67      20.0
  384                  JUNCTION            153.85     67.67      20.0
  385                  JUNCTION            150.01     67.67      20.0
  386                  JUNCTION            138.08     67.67      20.0
  387                  JUNCTION            137.00     41.85      20.0
  388                  JUNCTION            127.16     63.90      20.0
  389                  JUNCTION            116.71     63.90      20.0
  390                  JUNCTION             92.43     23.22      20.0
  391                  JUNCTION             83.51     23.22      20.0
  392                  JUNCTION             78.65     23.22      20.0
  393                  JUNCTION             73.85     23.22      20.0
  395                  JUNCTION             65.15     23.22      20.0
  396                  JUNCTION            372.12     12.64      20.0
  397                  JUNCTION            366.69     29.60      20.0
  399                  JUNCTION            334.42      0.00      20.0
  400                  JUNCTION            357.35     27.21      20.0
  401                  JUNCTION            348.25     27.21      20.0
  402                  JUNCTION            343.47     23.91      20.0
  403                  JUNCTION            340.00     23.91      20.0
  404                  JUNCTION            330.39     31.53      20.0
  407                  JUNCTION            335.45      6.82      20.0
  408                  JUNCTION            333.79     31.53      20.0
  409                  JUNCTION            332.63     31.53      20.0
  410                  JUNCTION            331.29     31.53      20.0
  411                  JUNCTION            328.88     28.50      20.0
  412                  JUNCTION            319.96     24.10      20.0
  413                  JUNCTION            324.21      6.82      20.0
  414                  JUNCTION            326.00      6.82      20.0
  415                  JUNCTION            308.73      0.00      20.0
  416                  JUNCTION            315.00     27.71      20.0
  417                  JUNCTION            346.31     36.78      20.0
  418                  JUNCTION            342.62     36.78      20.0
  419                  JUNCTION            340.31     36.78      20.0
  420                  JUNCTION            337.43     36.78      20.0
  421                  JUNCTION            302.98     21.57      20.0
  422                  JUNCTION            296.06      0.00      20.0
  423                  JUNCTION            333.25     27.15      20.0
  424                  JUNCTION            332.16     25.44      20.0
  425                  JUNCTION            331.54     25.44      20.0
  426                  JUNCTION            328.64     26.76      20.0
  427                  JUNCTION            328.00     26.76      20.0
  428                  JUNCTION            327.37     26.76      20.0
  429                  JUNCTION            325.35     26.76      20.0
  431                  JUNCTION            293.31      0.00      20.0
[...]
  2323                    1.00   0.10  0.00  0.00  0.90  0.00  0.00  0.00  0.00  0.00
  2324                    1.00   0.10  0.04  0.00  0.87  0.00  0.00  0.00  0.86  0.00
  2325                    1.00   0.13  0.00  0.00  0.87  0.00  0.00  0.00  0.01  0.00
  2326                    1.00   0.10  0.00  0.00  0.90  0.00  0.00  0.00  0.87  0.00
  2327                    1.00   0.12  0.00  0.00  0.88  0.00  0.00  0.00  0.85  0.00
  2328                    1.00   0.10  0.00  0.00  0.90  0.00  0.00  0.00  0.82  0.00
  2329                    1.00   0.14  0.00  0.00  0.86  0.00  0.00  0.00  0.00  0.00
  2330                    1.37   0.15  0.00  0.00  0.85  0.00  0.00  0.00  0.00  0.00
  2331                    1.36   0.11  0.00  0.00  0.89  0.00  0.00  0.00  0.00  0.00
  2332                    1.00   0.11  0.04  0.00  0.84  0.00  0.00  0.00  0.64  0.00
  2333                    1.00   0.15  0.00  0.00  0.85  0.00  0.00  0.00  0.83  0.00
  2334                    1.00   0.15  0.00  0.00  0.85  0.00  0.00  0.00  0.81  0.00
  2335                    1.70   0.15  0.00  0.00  0.85  0.00  0.00  0.00  0.81  0.00
  2336                    1.00   0.13  0.00  0.00  0.87  0.00  0.00  0.00  0.84  0.00
  2338                    2.28   0.15  0.00  0.00  0.85  0.00  0.00  0.00  0.84  0.00
  2339                    1.00   0.14  0.00  0.00  0.86  0.00  0.00  0.00  0.00  0.00
  2340                    1.00   0.15  0.01  0.00  0.84  0.00  0.00  0.00  0.84  0.00
  2341                    1.00   0.68  0.00  0.00  0.32  0.00  0.00  0.00  0.11  0.00
  2342                    1.00   0.11  0.00  0.00  0.89  0.00  0.00  0.00  0.00  0.00
  2343                    1.00   0.10  0.60  0.00  0.30  0.00  0.00  0.00  0.88  0.00
  2344                    1.00   0.10  0.01  0.00  0.90  0.00  0.00  0.00  0.00  0.00
  2345                    1.00   0.69  0.00  0.00  0.31  0.00  0.00  0.00  0.08  0.00
  2346                    1.00   0.10  0.61  0.00  0.29  0.01  0.00  0.00  0.88  0.00
  2347                    1.00   0.11  0.89  0.00  0.00  0.00  0.00  0.00  0.00  0.00
  2348                    2.28   0.56  0.04  0.00  0.37  0.03  0.00  0.00  0.86  0.00
  2349                    1.00   0.13  0.87  0.00  0.00  0.00  0.00  0.00  0.00  0.00
  2350                    1.00   0.10  0.46  0.00  0.42  0.01  0.00  0.00  0.85  0.00
  2354                    6.93   0.60  0.40  0.00  0.00  0.00  0.00  0.00  0.00  0.00
  2358                    2.69   0.78  0.00  0.00  0.22  0.00  0.00  0.00  0.21  0.00
  2359                    1.00   0.10  0.69  0.00  0.13  0.08  0.00  0.00  0.88  0.00
  2368                    7.18   0.69  0.07  0.00  0.22  0.01  0.00  0.00  0.90  0.00
  2373                   18.11   0.10  0.53  0.00  0.33  0.05  0.00  0.00  0.87  0.00
  2377                   18.24   0.10  0.90  0.00  0.00  0.00  0.00  0.00  0.00  0.00
  2382                   31.13   0.68  0.11  0.00  0.21  0.00  0.00  0.00  0.90  0.00
  2386                   15.72   0.72  0.08  0.00  0.20  0.00  0.00  0.00  0.90  0.00
  2395                   22.71   0.10  0.02  0.00  0.66  0.22  0.00  0.00  0.88  0.00
  2399                   11.14   0.10  0.90  0.00  0.00  0.00  0.00  0.00  0.00  0.00
  2406                    9.84   0.10  0.00  0.00  0.88  0.02  0.00  0.00  0.00  0.00
  2417                    4.09   0.56  0.20  0.00  0.23  0.00  0.00  0.00  0.90  0.00
  2418                    4.12   0.56  0.44  0.00  0.00  0.00  0.00  0.00  0.00  0.00
  2431                    8.84   0.10  0.03  0.00  0.22  0.65  0.00  0.00  0.08  0.00
  2433                    1.00   0.35  0.00  0.00  0.65  0.00  0.00  0.00  0.59  0.00
  2436                    1.00   0.37  0.00  0.00  0.63  0.00  0.00  0.00  0.00  0.00
  2437                    1.00   0.37  0.00  0.00  0.63  0.00  0.00  0.00  0.57  0.00
  2441                    1.00   0.10  0.15  0.00  0.75  0.00  0.00  0.00  0.80  0.00
  2442                    1.00   0.25  0.11  0.00  0.64  0.00  0.00  0.00  0.83  0.00
  2443                    1.00   0.36  0.01  0.00  0.64  0.00  0.00  0.00  0.81  0.00
  2444                    1.00   0.32  0.00  0.00  0.68  0.00  0.00  0.00  0.00  0.00
  2446                    1.00   0.70  0.01  0.00  0.28  0.00  0.00  0.00  0.72  0.00
  2448                    1.00   0.32  0.10  0.00  0.58  0.00  0.00  0.00  0.85  0.00
  2449                    1.05   0.35  0.00  0.00  0.65  0.00  0.00  0.00  0.52  0.00
  2450                    6.11   0.35  0.01  0.00  0.64  0.00  0.00  0.00  0.85  0.00
  2452                    1.00   0.14  0.23  0.00  0.63  0.00  0.00  0.00  0.84  0.00
  2453                    1.00   0.32  0.00  0.00  0.68  0.00  0.00  0.00  0.00  0.00
  2454                    1.00   0.11  0.43  0.00  0.46  0.00  0.00  0.00  0.84  0.00
  2455                    1.00   0.52  0.18  0.00  0.30  0.00  0.00  0.00  0.86  0.00
  2456                    1.00   0.16  0.00  0.00  0.84  0.00  0.00  0.00  0.00  0.00
  2460                    5.90   0.72  0.06  0.00  0.22  0.00  0.00  0.00  0.90  0.00
  2461                    1.00   0.72  0.28  0.00  0.00  0.00  0.00  0.00  0.00  0.00
  2465                    4.08   0.74  0.01  0.00  0.25  0.00  0.00  0.00  0.79  0.00
  2467                    1.00   0.67  0.07  0.00  0.26  0.00  0.00  0.00  0.89  0.00
  2468                    5.80   0.12  0.03  0.00  0.71  0.14  0.00  0.00  0.62  0.00
  2483                    3.42   0.10  0.00  0.00  0.90  0.00  0.00  0.00  0.77  0.00
  2502                    2.28   0.10  0.01  0.00  0.90  0.00  0.00  0.00  0.00  0.00
  2512                    2.46   0.10  0.04  0.00  0.86  0.00  0.00  0.00  0.74  0.00
  2531                   10.85   0.10  0.07  0.00  0.83  0.00  0.00  0.00  0.83  0.00
  2533                    1.00   0.55  0.11  0.00  0.33  0.00  0.00  0.00  0.87  0.00
  2535                    1.00   0.46  0.04  0.00  0.40  0.11  0.00  0.00  0.01  0.00
  2536                    1.11   0.48  0.00  0.00  0.52  0.00  0.00  0.00  0.26  0.00
  2539                    1.00   0.32  0.25  0.00  0.44  0.00  0.00  0.00  0.86  0.00
  2549                    9.24   0.10  0.05  0.00  0.86  0.00  0.00  0.00  0.49  0.00
  2578                   60.02   0.34  0.14  0.00  0.51  0.01  0.00  0.00  0.89  0.00
  2580                    1.00   0.36  0.00  0.00  0.64  0.00  0.00  0.00  0.00  0.00
  2583                    1.00   0.19  0.17  0.00  0.64  0.00  0.00  0.00  0.85  0.00
  2584                    1.00   0.29  0.00  0.00  0.71  0.00  0.00  0.00  0.00  0.00
  2585                    1.00   0.27  0.07  0.00  0.66  0.00  0.00  0.00  0.80  0.00
  2586                    1.00   0.34  0.04  0.00  0.62  0.00  0.00  0.00  0.86  0.00
  2589                    1.00   0.22  0.12  0.00  0.66  0.00  0.00  0.00  0.86  0.00
  2594                    1.00   0.10  0.03  0.00  0.87  0.00  0.00  0.00  0.63  0.00
  2595                    1.00   0.11  0.00  0.00  0.89  0.00  0.00  0.00  0.62  0.00
  2597                    1.00   0.10  0.00  0.00  0.90  0.00  0.00  0.00  0.00  0.00
  2598                    1.00   0.10  0.00  0.00  0.90  0.00  0.00  0.00  0.75  0.00
  2601                    1.00   0.10  0.00  0.00  0.36  0.54  0.00  0.00  0.81  0.00
  2602                    1.00   0.12  0.00  0.00  0.88  0.00  0.00  0.00  0.48  0.00
  2604                    1.00   0.10  0.06  0.00  0.83  0.00  0.00  0.00  0.86  0.00
  2608                    1.00   0.10  0.00  0.00  0.90  0.00  0.00  0.00  0.80  0.00
  2609                    1.00   0.10  0.00  0.00  0.89  0.01  0.00  0.00  0.85  0.00
  2610                    1.00   0.10  0.00  0.00  0.90  0.00  0.00  0.00  0.00  0.00
  2611                    1.00   0.10  0.00  0.00  0.90  0.00  0.00  0.00  0.00  0.00
  2613                    1.00   0.14  0.02  0.00  0.84  0.00  0.00  0.00  0.84  0.00
  2615                    1.00   0.16  0.00  0.00  0.84  0.00  0.00  0.00  0.83  0.00
  2619                    1.00   0.10  0.00  0.00  0.81  0.09  0.00  0.00  0.00  0.00
  2622                    1.00   0.10  0.00  0.00  0.90  0.00  0.00  0.00  0.00  0.00
  2623                    1.00   0.10  0.01  0.00  0.90  0.00  0.00  0.00  0.87  0.00
  2625                    1.00   0.10  0.00  0.00  0.90  0.00  0.00  0.00  0.86  0.00
  2627                    1.00   0.10  0.00  0.00  0.86  0.04  0.00  0.00  0.81  0.00
  2628                    6.98   0.10  0.00  0.00  0.00  0.90  0.00  0.00  0.88  0.00
  2629                    1.00   0.69  0.02  0.00  0.29  0.00  0.00  0.00  0.88  0.00
  2630                    3.29   0.10  0.00  0.00  0.90  0.00  0.00  0.00  0.86  0.00
  2631                    1.00   0.10  0.25  0.00  0.65  0.00  0.00  0.00  0.83  0.00
  2632                    1.00   0.34  0.32  0.00  0.34  0.00  0.00  0.00  0.84  0.00
  2633                    1.00   0.62  0.00  0.00  0.38  0.00  0.00  0.00  0.02  0.00
  2634                    1.00   0.61  0.08  0.00  0.31  0.00  0.00  0.00  0.86  0.00
  2637                    1.00   0.10  0.00  0.00  0.47  0.43  0.00  0.00  0.00  0.00
  2638                    1.00   0.10  0.01  0.00  0.89  0.01  0.00  0.00  0.01  0.00
  2639                    1.00   0.13  0.00  0.00  0.86  0.00  0.00  0.00  0.84  0.00
  2640                    1.00   0.10  0.05  0.00  0.85  0.00  0.00  0.00  0.84  0.00
  2641                    1.00   0.10  0.90  0.00  0.00  0.00  0.00  0.00  0.00  0.00
  2642                    1.00   0.16  0.00  0.00  0.84  0.00  0.00  0.00  0.46  0.00
  2643                    1.00   0.14  0.00  0.00  0.86  0.00  0.00  0.00  0.06  0.00
  2644                    1.00   0.10  0.00  0.00  0.90  0.00  0.00  0.00  0.74  0.00
  2645                    1.00   0.10  0.00  0.00  0.90  0.00  0.00  0.00  0.76  0.00
  2646                    1.00   0.11  0.00  0.00  0.89  0.00  0.00  0.00  0.00  0.00
  2647                    1.00   0.10  0.04  0.00  0.86  0.00  0.00  0.00  0.86  0.00
  2648                    1.00   0.14  0.64  0.00  0.21  0.00  0.00  0.00  0.72  0.00
  2652                    1.00   0.10  0.00  0.00  0.90  0.00  0.00  0.00  0.60  0.00
  2654                    1.00   0.10  0.00  0.00  0.90  0.00  0.00  0.00  0.00  0.00
  2655                    1.00   0.10  0.00  0.00  0.90  0.00  0.00  0.00  0.85  0.00
  2657                    1.00   0.10  0.00  0.00  0.90  0.00  0.00  0.00  0.63  0.00
  2658                    1.00   0.10  0.01  0.00  0.89  0.00  0.00  0.00  0.89  0.00
  2659                    1.00   0.10  0.00  0.00  0.90  0.00  0.00  0.00  0.03  0.00
  2660                    1.00   0.10  0.06  0.00  0.84  0.00  0.00  0.00  0.01  0.00
  2661                    1.00   0.15  0.00  0.00  0.85  0.00  0.00  0.00  0.00  0.00
  2662                    1.00   0.14  0.00  0.00  0.86  0.00  0.00  0.00  0.01  0.00
  2663                    1.00   0.12  0.00  0.00  0.88  0.00  0.00  0.00  0.00  0.00
  2664                    1.00   0.10  0.00  0.00  0.90  0.00  0.00  0.00  0.84  0.00
  2665                    1.00   0.10  0.00  0.00  0.90  0.00  0.00  0.00  0.87  0.00
  2666                    1.00   0.10  0.00  0.00  0.90  0.00  0.00  0.00  0.85  0.00
  2667                    1.00   0.10  0.01  0.00  0.90  0.00  0.00  0.00  0.07  0.00
  2668                    1.00   0.12  0.00  0.00  0.88  0.00  0.00  0.00  0.00  0.00
  2672                    1.00   0.10  0.00  0.00  0.90  0.00  0.00  0.00  0.75  0.00
  2673                    1.01   0.10  0.00  0.00  0.89  0.01  0.00  0.00  0.84  0.00
  2674                    1.00   0.10  0.04  0.00  0.86  0.00  0.00  0.00  0.02  0.00
  2675                    1.00   0.11  0.00  0.00  0.89  0.00  0.00  0.00  0.84  0.00
  2676                    1.00   0.10  0.00  0.00  0.90  0.00  0.00  0.00  0.85  0.00
  2677                    1.00   0.10  0.05  0.00  0.85  0.00  0.00  0.00  0.03  0.00
  2678                    1.00   0.14  0.00  0.00  0.86  0.01  0.00  0.00  0.84  0.00
  2680                    1.00   0.17  0.00  0.00  0.83  0.00  0.00  0.00  0.00  0.00
  2681                    1.00   0.17  0.00  0.00  0.83  0.00  0.00  0.00  0.82  0.00
  2683                    1.00   0.10  0.00  0.00  0.90  0.00  0.00  0.00  0.65  0.00
  2684                    1.00   0.10  0.08  0.00  0.82  0.00  0.00  0.00  0.81  0.00
  2685                    1.00   0.13  0.00  0.00  0.87  0.00  0.00  0.00  0.00  0.00
  2687                    4.21   0.10  0.05  0.00  0.85  0.00  0.00  0.00  0.74  0.00
  2688                    1.00   0.10  0.00  0.00  0.88  0.02  0.00  0.00  0.69  0.00
  2689                    3.28   0.13  0.00  0.00  0.86  0.01  0.00  0.00  0.03  0.00
  2690                    1.00   0.13  0.03  0.00  0.81  0.03  0.00  0.00  0.81  0.00
  2692                    1.00   0.10  0.03  0.00  0.87  0.00  0.00  0.00  0.82  0.00
  2693                    1.00   0.10  0.00  0.00  0.90  0.00  0.00  0.00  0.00  0.00
  2694                    7.47   0.44  0.32  0.00  0.22  0.02  0.00  0.00  0.89  0.00
  2697                    1.00   0.10  0.64  0.00  0.26  0.00  0.00  0.00  0.85  0.00
  2698                    1.00   0.12  0.77  0.00  0.11  0.00  0.00  0.00  0.76  0.00
  2700                    1.00   0.13  0.87  0.00  0.00  0.00  0.00  0.00  0.00  0.00
  2702                    2.37   0.74  0.04  0.00  0.21  0.00  0.00  0.00  0.88  0.00
  2703                    1.00   0.10  0.64  0.00  0.26  0.00  0.00  0.00  0.85  0.00
  2704                    1.00   0.13  0.87  0.00  0.00  0.00  0.00  0.00  0.00  0.00
  2705                    1.00   0.10  0.00  0.00  0.90  0.00  0.00  0.00  0.84  0.00
  2722                    1.79   0.74  0.15  0.00  0.11  0.00  0.00  0.00  0.79  0.00
  2726                    4.30   0.10  0.90  0.00  0.00  0.00  0.00  0.00  0.00  0.00
  2730                    4.30   0.10  0.90  0.00  0.00  0.00  0.00  0.00  0.00  0.00
  2739                   10.43   0.71  0.08  0.00  0.21  0.00  0.00  0.00  0.90  0.00
  2740                    3.41   0.71  0.29  0.00  0.00  0.00  0.00  0.00  0.00  0.00
  2754                   38.61   0.13  0.65  0.00  0.20  0.02  0.00  0.00  0.89  0.00
  2758                    9.82   0.13  0.87  0.00  0.00  0.00  0.00  0.00  0.00  0.00
  2766                    1.29   0.10  0.90  0.00  0.00  0.00  0.00  0.00  0.00  0.00
  2767                    1.00   0.10  0.00  0.00  0.90  0.00  0.00  0.00  0.77  0.00
  2771                    2.11   0.10  0.03  0.00  0.87  0.00  0.00  0.00  0.69  0.00
  2790                    1.88   0.10  0.32  0.00  0.58  0.00  0.00  0.00  0.22  0.00
  2817                    3.99   0.64  0.09  0.00  0.27  0.00  0.00  0.00  0.76  0.00
  2834                    2.62   0.61  0.12  0.00  0.27  0.00  0.00  0.00  0.70  0.00
  2838                    1.32   0.10  0.79  0.00  0.11  0.00  0.00  0.00  0.74  0.00
  2839                    1.00   0.10  0.79  0.00  0.12  0.00  0.00  0.00  0.74  0.00
  2840                    1.15   0.10  0.00  0.00  0.90  0.00  0.00  0.00  0.00  0.00
  2844                    4.03   0.10  0.90  0.00  0.00  0.00  0.00  0.00  0.00  0.00
  2859                   10.93   0.10  0.00  0.00  0.90  0.00  0.00  0.00  0.90  0.00
  2871                    1.00   0.67  0.05  0.00  0.28  0.00  0.00  0.00  0.86  0.00
  2872                    1.00   0.64  0.03  0.00  0.33  0.00  0.00  0.00  0.76  0.00
  2873                    1.00   0.60  0.06  0.00  0.34  0.00  0.00  0.00  0.84  0.00
  2874                    1.00   0.10  0.00  0.00  0.60  0.30  0.00  0.00  0.18  0.00
  2875                    1.00   0.44  0.17  0.00  0.39  0.00  0.00  0.00  0.87  0.00
  2876                    1.00   0.44  0.00  0.00  0.56  0.00  0.00  0.00  0.00  0.00
  2877                    1.00   0.10  0.45  0.00  0.46  0.00  0.00  0.00  0.85  0.00
  2878                    1.00   0.10  0.05  0.00  0.85  0.00  0.00  0.00  0.85  0.00
  2880                    1.00   0.11  0.00  0.00  0.88  0.00  0.00  0.00  0.00  0.00
  2882                    1.00   0.10  0.05  0.00  0.62  0.23  0.00  0.00  0.52  0.00
  2883                    1.00   0.14  0.00  0.00  0.35  0.51  0.00  0.00  0.29  0.00
  2884                    1.00   0.10  0.00  0.00  0.90  0.00  0.00  0.00  0.85  0.00
  2885                    1.00   0.11  0.00  0.00  0.89  0.00  0.00  0.00  0.80  0.00
  2886                    1.00   0.10  0.00  0.00  0.90  0.00  0.00  0.00  0.00  0.00
  2887                    1.00   0.10  0.90  0.00  0.00  0.00  0.00  0.00  0.00  0.00
  2888                    1.00   0.10  0.00  0.00  0.87  0.03  0.00  0.00  0.85  0.00
  2890                    1.00   0.10  0.00  0.00  0.90  0.00  0.00  0.00  0.75  0.00
  2894                    1.93   0.10  0.00  0.00  0.89  0.01  0.00  0.00  0.87  0.00
  2895                    1.00   0.11  0.00  0.00  0.88  0.01  0.00  0.00  0.80  0.00
  2896                    1.00   0.13  0.00  0.00  0.64  0.23  0.00  0.00  0.00  0.00
  2898                    1.00   0.10  0.90  0.00  0.00  0.00  0.00  0.00  0.00  0.00
  2899                    1.00   0.10  0.06  0.00  0.84  0.00  0.00  0.00  0.01  0.00
  2900                    1.00   0.16  0.00  0.00  0.84  0.00  0.00  0.00  0.83  0.00
  2901                    1.00   0.15  0.00  0.00  0.85  0.00  0.00  0.00  0.00  0.00
  2902                    1.00   0.10  0.00  0.00  0.90  0.00  0.00  0.00  0.86  0.00
  2903                    1.00   0.10  0.00  0.00  0.90  0.00  0.00  0.00  0.90  0.00
  2904                    1.00   0.10  0.04  0.00  0.87  0.00  0.00  0.00  0.01  0.00
  2905                    1.00   0.12  0.00  0.00  0.88  0.00  0.00  0.00  0.84  0.00
  2906                    1.00   0.10  0.00  0.00  0.90  0.00  0.00  0.00  0.85  0.00
  2907                    1.00   0.10  0.00  0.00  0.90  0.00  0.00  0.00  0.00  0.00
  2908                    1.00   0.11  0.00  0.00  0.89  0.00  0.00  0.00  0.00  0.00
  2909                    1.00   0.10  0.00  0.00  0.90  0.00  0.00  0.00  0.88  0.00
  2910                    1.00   0.13  0.00  0.00  0.87  0.00  0.00  0.00  0.14  0.00
  2911                    1.00   0.15  0.00  0.00  0.85  0.00  0.00  0.00  0.81  0.00
  2913                    1.00   0.56  0.00  0.00  0.44  0.00  0.00  0.00  0.39  0.00
  2914                    1.00   0.13  0.00  0.00  0.87  0.01  0.00  0.00  0.64  0.00
  2915                    1.00   0.11  0.21  0.00  0.68  0.00  0.00  0.00  0.85  0.00
  2916                    1.00   0.31  0.27  0.00  0.39  0.04  0.00  0.00  0.73  0.00
  2917                    1.00   0.10  0.05  0.00  0.84  0.01  0.00  0.00  0.71  0.00
  2918                    1.00   0.15  0.00  0.00  0.85  0.00  0.00  0.00  0.84  0.00
  2919                    1.00   0.15  0.00  0.00  0.85  0.00  0.00  0.00  0.00  0.00
  2920                    1.00   0.14  0.00  0.00  0.86  0.00  0.00  0.00  0.85  0.00
  2922                    2.02   0.72  0.03  0.00  0.25  0.00  0.00  0.00  0.88  0.00
  2923                    1.00   0.10  0.62  0.00  0.28  0.00  0.00  0.00  0.85  0.00
  2928                    6.67   0.75  0.02  0.00  0.23  0.00  0.00  0.00  0.90  0.00
  2932                   17.30   0.10  0.68  0.00  0.14  0.08  0.00  0.00  0.83  0.00
  
  
  *************************
  Conduit Surcharge Summary
  *************************
  
  ----------------------------------------------------------------------------
                                                           Hours        Hours 
                         --------- Hours Full --------   Above Full   Capacity
  Conduit                Both Ends  Upstream  Dnstream   Normal Flow   Limited
  ----------------------------------------------------------------------------
  297                         3.92      5.50      3.92      8.97         0.01
  313                         2.39      2.39     10.34      0.01         0.01
  814                        17.50     17.50     22.54     12.57         0.01
  2359                        0.01      0.01      4.20      0.01         0.01
  2790                       12.93     12.93     20.82      7.99         0.01
  

  Analysis begun on:  Fri Mar  6 14:29:38 2026
  Analysis ended on:  Fri Mar  6 14:30:28 2026
  Total elapsed time: 00:00:50