
  EPA STORM WATER MANAGEMENT MODEL - VERSION 5.2 (Build 5.2.4)
  ------------------------------------------------------------

  Scenario Run :  BASE 
  WARNING 04: minimum elevation drop used for Conduit 11700
  WARNING 04: minimum elevation drop used for Conduit 12328
  WARNING 04: minimum elevation drop used for Conduit 13694
  WARNING 04: minimum elevation drop used for Conduit 1544.2
  WARNING 04: minimum elevation drop used for Conduit 15534
  WARNING 04: minimum elevation drop used for Conduit 1874.2
  WARNING 04: minimum elevation drop used for Conduit 2216.2
  WARNING 04: minimum elevation drop used for Conduit 6960
  WARNING 04: minimum elevation drop used for Conduit LINK-01
  WARNING 02: maximum depth increased for Node 12621
  WARNING 02: maximum depth increased for Node 12652
  WARNING 02: maximum depth increased for Node 13713
  WARNING 02: maximum depth increased for Node 1381
  WARNING 02: maximum depth increased for Node 5365
  WARNING 02: maximum depth increased for Node 5366
  WARNING 02: maximum depth increased for Node NODE1917
  
  *************
  Element Count
  *************
  Number of rain gages ...... 1
  Number of subcatchments ... 709
  Number of nodes ........... 1033
  Number of links ........... 1283
  Number of pollutants ...... 0
  Number of land uses ....... 0
  
  
  ****************
  Raingage Summary
  ****************
                                                      Data       Recording
  Name                 Data Source                    Type       Interval 
  ------------------------------------------------------------------------
  BVILLE 14 10YRGAGE   BVILLE 14 10YR                 CUMULATIVE   6 min.
  
  
  ********************
  Subcatchment Summary
  ********************
  Name                       Area     Width   %Imperv    %Slope Rain Gage            Outlet              
  -----------------------------------------------------------------------------------------------------------
  1005#1                     1.49      0.00     61.70    3.3161 BVILLE 14 10YRGAGE   1005                
  1014#1                     2.23      0.01     71.40    3.9002 BVILLE 14 10YRGAGE   1014                
  10409#1                    0.89      0.01     38.20    3.3256 BVILLE 14 10YRGAGE   10409               
  10414#1                    7.01      0.02     73.20    5.7590 BVILLE 14 10YRGAGE   10414               
  105#1                     15.71      0.01     41.30    8.6779 BVILLE 14 10YRGAGE   105                 
  10726#1                    4.46      0.02     46.80   14.1142 BVILLE 14 10YRGAGE   10726               
  10734#1                    1.13      0.01     61.80    4.3647 BVILLE 14 10YRGAGE   10734               
  10735#1                    2.39      0.01     70.30    4.1272 BVILLE 14 10YRGAGE   10735               
  10737#1                    0.40      0.00     76.80    4.6218 BVILLE 14 10YRGAGE   10737               
  10746#1                    1.58      0.01     76.90    5.5603 BVILLE 14 10YRGAGE   10746               
  10750#1                    4.93      0.01     85.90    4.6474 BVILLE 14 10YRGAGE   10750               
  10751#1                    6.60      0.01     35.40    3.8028 BVILLE 14 10YRGAGE   10751               
  10754#1                    0.30      0.00     86.60    3.7602 BVILLE 14 10YRGAGE   10754               
  10755#1                    0.28      0.00    100.00    4.9863 BVILLE 14 10YRGAGE   10755               
  10756#1                    1.28      0.01     69.40    5.6236 BVILLE 14 10YRGAGE   10756               
  1097#1                     5.24      0.01     87.70    4.9492 BVILLE 14 10YRGAGE   1097                
  1106#1                     7.17      0.02     32.50    3.1058 BVILLE 14 10YRGAGE   1106                
  1107#1                     0.12      0.00     72.60    6.5029 BVILLE 14 10YRGAGE   1107                
  111#1                      3.29      0.01     18.70   11.3153 BVILLE 14 10YRGAGE   111                 
  1111#1                     1.15      0.01     62.90    4.0472 BVILLE 14 10YRGAGE   1111                
  1112#1                     0.07      0.00     84.20    4.0232 BVILLE 14 10YRGAGE   1112                
  1115#1                     1.12      0.01     57.50    4.5592 BVILLE 14 10YRGAGE   1115                
  11167#1                    2.46      0.01     55.90   11.9891 BVILLE 14 10YRGAGE   11167               
  11168#1                    2.25      0.01     44.80   10.6652 BVILLE 14 10YRGAGE   11168               
  11170#1                    0.87      0.01     25.10   15.8447 BVILLE 14 10YRGAGE   11170               
  11171#1                    8.12      0.02     24.70   13.4933 BVILLE 14 10YRGAGE   11171               
  1119#1                     0.74      0.01     56.40    6.5384 BVILLE 14 10YRGAGE   1119                
  1120#1                     0.38      0.01     23.10    5.9010 BVILLE 14 10YRGAGE   1120                
  1120#2                     4.17      0.02     87.30    4.7393 BVILLE 14 10YRGAGE   1120                
  1120#3                     4.82      0.02     82.40    7.1160 BVILLE 14 10YRGAGE   1120                
  1120#4                     2.08      0.02     74.20    5.7607 BVILLE 14 10YRGAGE   1120                
  1122#1                     0.14      0.01     89.60    5.5868 BVILLE 14 10YRGAGE   1122                
  11227#1                    2.73      0.01     32.40   21.9721 BVILLE 14 10YRGAGE   11227               
  11229#1                    1.59      0.01      3.80   14.4510 BVILLE 14 10YRGAGE   11229               
  11230#1                    0.29      0.00     30.60   12.4440 BVILLE 14 10YRGAGE   11230               
  11231#1                    4.56      0.02     38.30   12.9324 BVILLE 14 10YRGAGE   11231               
  11234#1                    1.87      0.00     77.40    4.2870 BVILLE 14 10YRGAGE   11234               
  11237#1                    2.75      0.01     11.70   22.1374 BVILLE 14 10YRGAGE   11237               
  1124#1                     0.93      0.01     51.00    4.9869 BVILLE 14 10YRGAGE   1124                
  1127#1                     0.56      0.01     66.00    4.7281 BVILLE 14 10YRGAGE   1127                
  11280#1                    1.38      0.01     66.20    6.6236 BVILLE 14 10YRGAGE   11280               
  11299#1                    0.45      0.01     67.80    5.7492 BVILLE 14 10YRGAGE   11299               
  11300#1                    0.17      0.01     99.90    3.8763 BVILLE 14 10YRGAGE   11300               
  11303#1                   12.86      0.04     28.50    6.0700 BVILLE 14 10YRGAGE   11303               
  1134#1                     5.97      0.03     80.60    3.8287 BVILLE 14 10YRGAGE   1134                
  1136#1                     0.40      0.00     35.70    5.0725 BVILLE 14 10YRGAGE   1136                
  1139#1                    12.98      0.03     22.00    4.1023 BVILLE 14 10YRGAGE   1139                
  1143#1                     6.85      0.02     51.20    8.6084 BVILLE 14 10YRGAGE   1143                
  11459#1                    0.35      0.01     73.60    5.0466 BVILLE 14 10YRGAGE   11459               
  1146#1                     0.35      0.01     21.00    5.2647 BVILLE 14 10YRGAGE   1146                
  115#1                      2.87      0.01     37.50    9.3775 BVILLE 14 10YRGAGE   115                 
  11504#1                    6.54      0.02     53.80   10.7814 BVILLE 14 10YRGAGE   11504               
  11509#1                    2.38      0.01     20.90    7.6132 BVILLE 14 10YRGAGE   11509               
  1152#1                     0.45      0.01     79.30    4.0892 BVILLE 14 10YRGAGE   1152                
  1154#1                     5.14      0.01     81.20    3.1731 BVILLE 14 10YRGAGE   1154                
  11568#1                    1.52      0.01     38.90   15.2326 BVILLE 14 10YRGAGE   11568               
  11571#1                    0.70      0.01     33.80   11.6289 BVILLE 14 10YRGAGE   11571               
  11574#1                    0.78      0.01     72.50    3.6365 BVILLE 14 10YRGAGE   11574               
  11576#1                    3.46      0.02     56.90    4.6937 BVILLE 14 10YRGAGE   11576               
  11579#1                    7.04      0.02     64.20    4.8334 BVILLE 14 10YRGAGE   11579               
  11584#1                    0.25      0.00     85.00    4.8616 BVILLE 14 10YRGAGE   11584               
  11594#1                    0.59      0.00     65.30    3.1645 BVILLE 14 10YRGAGE   11594               
  11595#1                    3.30      0.01     76.80    5.4441 BVILLE 14 10YRGAGE   11595               
  11596#1                    0.34      0.01     72.30    5.8912 BVILLE 14 10YRGAGE   11596               
  11598#1                    0.69      0.01     51.10    5.5917 BVILLE 14 10YRGAGE   11598               
  11599#1                    6.91      0.02     53.90   11.4433 BVILLE 14 10YRGAGE   11599               
  1160#1                     4.66      0.02     57.60    5.6219 BVILLE 14 10YRGAGE   1160                
  11605#1                    0.73      0.01     66.50    3.0573 BVILLE 14 10YRGAGE   11605               
  11606#1                    0.54      0.01     32.20    2.9963 BVILLE 14 10YRGAGE   11606               
  11608#1                    0.91      0.01      3.30    4.7924 BVILLE 14 10YRGAGE   11608               
  11610#1                    0.39      0.00     53.60    5.9893 BVILLE 14 10YRGAGE   11610               
  11617#1                    2.55      0.01     58.00    6.3606 BVILLE 14 10YRGAGE   11617               
  11618#1                    0.88      0.00     56.40    6.7798 BVILLE 14 10YRGAGE   11618               
  11619#1                    1.34      0.01     50.20    7.7044 BVILLE 14 10YRGAGE   11619               
  11620#1                    3.22      0.01     42.40    7.7857 BVILLE 14 10YRGAGE   11620               
  11627#1                    4.54      0.02     62.80    7.6975 BVILLE 14 10YRGAGE   11627               
  11633#1                    0.07      0.00     71.30    4.2155 BVILLE 14 10YRGAGE   11633               
  11638#1                    1.44      0.01     18.70   10.6531 BVILLE 14 10YRGAGE   11638               
  11751#1                    3.09      0.01     93.70    5.4822 BVILLE 14 10YRGAGE   11751               
  1176#1                     0.71      0.00     47.10    3.8228 BVILLE 14 10YRGAGE   1176                
  11762#1                    2.13      0.01     82.50    6.3766 BVILLE 14 10YRGAGE   11762               
  11763#1                    0.77      0.01     41.60    8.4775 BVILLE 14 10YRGAGE   11763               
  1177#1                     3.72      0.02     56.00    6.9346 BVILLE 14 10YRGAGE   1177                
  11778#1                    0.71      0.01     96.60    3.8478 BVILLE 14 10YRGAGE   11778               
  11781#1                    0.24      0.00     13.00    5.5245 BVILLE 14 10YRGAGE   11781               
  11786#1                    0.35      0.00     74.40    6.1313 BVILLE 14 10YRGAGE   11786               
  11788#1                    0.34      0.00     70.40    7.6536 BVILLE 14 10YRGAGE   11788               
  11798#1                    1.52      0.01     73.20    6.2464 BVILLE 14 10YRGAGE   11798               
  11808#1                    0.53      0.00     88.80    4.4129 BVILLE 14 10YRGAGE   11808               
  1181#1                     3.76      0.02     45.00    6.8342 BVILLE 14 10YRGAGE   1181                
  11816#1                    0.76      0.01     47.20    6.0732 BVILLE 14 10YRGAGE   11816               
  11817#1                    1.54      0.01     99.80    2.9087 BVILLE 14 10YRGAGE   11817               
  11819#1                    0.55      0.01     78.40    6.2382 BVILLE 14 10YRGAGE   11819               
  11825#1                    0.31      0.00     89.90    6.0322 BVILLE 14 10YRGAGE   11825               
  11826#1                    0.42      0.00     25.70   11.0342 BVILLE 14 10YRGAGE   11826               
  11831#1                    0.39      0.00     29.20    3.1134 BVILLE 14 10YRGAGE   11831               
  11832#1                    0.68      0.01     17.80    9.3805 BVILLE 14 10YRGAGE   11832               
  11837#1                    0.94      0.01     60.20   11.8359 BVILLE 14 10YRGAGE   11837               
  1184#1                     0.81      0.01     57.40    6.6105 BVILLE 14 10YRGAGE   1184                
  11843#1                    0.49      0.01     59.60    7.5968 BVILLE 14 10YRGAGE   11843               
  11865#1                    5.04      0.02     20.40   18.8059 BVILLE 14 10YRGAGE   11865               
  11866#1                    0.48      0.01     11.90   21.4109 BVILLE 14 10YRGAGE   11866               
  12152#1                    0.72      0.01     19.20   20.0565 BVILLE 14 10YRGAGE   12152               
  12156#1                    4.89      0.01     27.20   13.4326 BVILLE 14 10YRGAGE   12156               
  1216#1                     0.63      0.00     70.40    4.9820 BVILLE 14 10YRGAGE   1216                
  12164#1                   15.41      0.02     16.70   15.3901 BVILLE 14 10YRGAGE   12164               
  12166#1                    0.31      0.00     25.30    3.9534 BVILLE 14 10YRGAGE   12166               
  1218#1                     0.42      0.01      4.10    6.3133 BVILLE 14 10YRGAGE   1218                
  12184#1                    3.00      0.01     18.20   16.5978 BVILLE 14 10YRGAGE   12184               
  1219#1                     2.48      0.02     52.50    7.9084 BVILLE 14 10YRGAGE   1219                
  12191#1                    0.89      0.01     87.00    4.9630 BVILLE 14 10YRGAGE   12191               
  12192#1                    1.45      0.01     63.00    4.7130 BVILLE 14 10YRGAGE   12192               
  122#1                      0.69      0.00     43.30    6.9572 BVILLE 14 10YRGAGE   122                 
  12202#1                    0.45      0.01     77.90    6.4380 BVILLE 14 10YRGAGE   12202               
  1222#1                     1.86      0.01     70.90    7.0182 BVILLE 14 10YRGAGE   1222                
  1223#1                     0.39      0.01     64.10    9.0298 BVILLE 14 10YRGAGE   1223                
  12256#1                    0.58      0.00      9.10    8.6441 BVILLE 14 10YRGAGE   12256               
  12257#1                    0.15      0.00      1.80    9.5835 BVILLE 14 10YRGAGE   12257               
  12258#1                    0.38      0.00     41.60    7.6047 BVILLE 14 10YRGAGE   12258               
  1227#1                     0.57      0.02     77.30    4.5599 BVILLE 14 10YRGAGE   1227                
  1231#1                     1.40      0.01     45.50    5.5068 BVILLE 14 10YRGAGE   1231                
  12317#1                    1.07      0.01     73.80   12.3941 BVILLE 14 10YRGAGE   12317               
  12323#1                    0.11      0.00     36.20   14.4950 BVILLE 14 10YRGAGE   12323               
  12329#1                    1.03      0.01     45.20   15.9667 BVILLE 14 10YRGAGE   12329               
  1233#1                     2.00      0.01     67.40    7.1560 BVILLE 14 10YRGAGE   1233                
  1234001#1                  3.87      0.01      6.00   11.3590 BVILLE 14 10YRGAGE   1234001             
  1234002#1                 11.08      0.03     24.00   11.6483 BVILLE 14 10YRGAGE   1234002             
  1234003#1                  3.70      0.01     14.60   18.8101 BVILLE 14 10YRGAGE   1234003             
  1234004#1                  1.94      0.01     51.60   16.7966 BVILLE 14 10YRGAGE   1234004             
  1235#1                     1.25      0.01     58.90    5.7489 BVILLE 14 10YRGAGE   1235                
  12352#1                    0.65      0.01     37.20    7.3531 BVILLE 14 10YRGAGE   12352               
  12363#1                    0.64      0.00     12.20   33.1339 BVILLE 14 10YRGAGE   12363               
  12365#1                    8.36      0.02     50.90   12.7408 BVILLE 14 10YRGAGE   12365               
  12366#1                    8.29      0.02     30.50   20.9257 BVILLE 14 10YRGAGE   12366               
  12370#1                    3.85      0.02     17.80    9.2998 BVILLE 14 10YRGAGE   12370               
  1238#1                     0.39      0.01     69.10    4.7977 BVILLE 14 10YRGAGE   1238                
  1239#1                     1.37      0.01     57.30    3.6910 BVILLE 14 10YRGAGE   1239                
  124#1                      4.99      0.01     16.40   12.3800 BVILLE 14 10YRGAGE   124                 
  1241#1                     0.39      0.01     83.40    5.0833 BVILLE 14 10YRGAGE   1241                
  1243#1                     1.18      0.01     37.50    6.4482 BVILLE 14 10YRGAGE   1243                
  1246#1                     0.58      0.01     57.00    4.1945 BVILLE 14 10YRGAGE   1246                
  1248#1                     0.96      0.01     64.20    6.7801 BVILLE 14 10YRGAGE   1248                
  12488#1                    1.84      0.01     70.90    7.9307 BVILLE 14 10YRGAGE   12488               
  12494#1                    0.23      0.01     23.10    5.7794 BVILLE 14 10YRGAGE   12494               
  12496#1                    1.34      0.01     42.20   10.6521 BVILLE 14 10YRGAGE   12496               
  12497#1                    1.58      0.01     47.20   10.7174 BVILLE 14 10YRGAGE   12497               
  12500#1                    1.80      0.02     48.60    6.2107 BVILLE 14 10YRGAGE   12500               
  12501#1                    0.86      0.01     16.20    8.8717 BVILLE 14 10YRGAGE   12501               
  12502#1                    6.67      0.01     35.80    9.8108 BVILLE 14 10YRGAGE   12502               
  12505#1                    3.78      0.01     32.00    8.0652 BVILLE 14 10YRGAGE   12505               
  12507#1                    2.09      0.01     30.20    8.3768 BVILLE 14 10YRGAGE   12507               
  12526#1                    1.28      0.01     32.00    9.5320 BVILLE 14 10YRGAGE   12526               
  1257#1                     3.85      0.01     40.70    8.5884 BVILLE 14 10YRGAGE   1257                
  1259#1                     1.27      0.01     32.60    8.1249 BVILLE 14 10YRGAGE   1259                
  12590#1                    0.77      0.00      5.90    7.6283 BVILLE 14 10YRGAGE   12590               
  12596#1                    2.06      0.01     65.10    8.1134 BVILLE 14 10YRGAGE   12596               
  126#1                      0.75      0.00      8.50   13.8367 BVILLE 14 10YRGAGE   126                 
  1260#1                     4.13      0.01     20.70   12.2219 BVILLE 14 10YRGAGE   1260                
  12612#1                    4.40      0.01     42.80    9.7295 BVILLE 14 10YRGAGE   12612               
  12614#1                    1.03      0.01     29.50    9.0744 BVILLE 14 10YRGAGE   12614               
  12616#1                    1.18      0.01     48.30   12.8310 BVILLE 14 10YRGAGE   12616               
  12620#1                    3.53      0.01     23.60   10.8378 BVILLE 14 10YRGAGE   12620               
  12621#1                    1.31      0.01     31.00   10.4353 BVILLE 14 10YRGAGE   12621               
  12622#1                    0.27      0.00     55.10    8.6904 BVILLE 14 10YRGAGE   12622               
  12623#1                    0.69      0.01     28.50    8.7966 BVILLE 14 10YRGAGE   12623               
  12624#1                    0.20      0.00     51.10    8.5011 BVILLE 14 10YRGAGE   12624               
  12625#1                    1.21      0.01      5.90   18.6238 BVILLE 14 10YRGAGE   12625               
  12628#1                    1.29      0.01     13.80    9.0351 BVILLE 14 10YRGAGE   12628               
  12630#1                    9.02      0.02     18.10   14.8144 BVILLE 14 10YRGAGE   12630               
  12634#1                    3.29      0.01     38.80   10.8283 BVILLE 14 10YRGAGE   12634               
  12638#1                    2.32      0.01     37.70   14.4881 BVILLE 14 10YRGAGE   12638               
  12650#1                    1.83      0.01     35.40   15.0037 BVILLE 14 10YRGAGE   12650               
  12651#1                    0.54      0.00     13.10   13.5576 BVILLE 14 10YRGAGE   12651               
  12652#1                    0.27      0.00     59.80    8.4706 BVILLE 14 10YRGAGE   12652               
  127#1                      1.68      0.01     17.10    8.5598 BVILLE 14 10YRGAGE   127                 
  12737#1                    3.92      0.01     28.00    8.2827 BVILLE 14 10YRGAGE   12737               
  12739#1                    5.18      0.01      6.30   18.9292 BVILLE 14 10YRGAGE   12739               
  12747#1                    4.92      0.01     34.00    6.8844 BVILLE 14 10YRGAGE   12747               
  12754#1                   19.18      0.02     31.20    9.1627 BVILLE 14 10YRGAGE   12754               
  12758#1                    7.53      0.01      5.60   25.9920 BVILLE 14 10YRGAGE   12758               
  12762#1                    3.37      0.01     11.10   12.5565 BVILLE 14 10YRGAGE   12762               
  12767#1                   11.72      0.02      9.10    5.2090 BVILLE 14 10YRGAGE   12767               
  12768#1                    3.23      0.01     59.30    6.4377 BVILLE 14 10YRGAGE   12768               
  128#1                      0.93      0.01     31.90    6.9398 BVILLE 14 10YRGAGE   128                 
  12812#1                    0.62      0.00     85.80   12.7864 BVILLE 14 10YRGAGE   12812               
  12817#1                   11.06      0.05     54.60   13.6117 BVILLE 14 10YRGAGE   12817               
  12824#1                    1.16      0.01     13.80   17.1082 BVILLE 14 10YRGAGE   12824               
  12834#1                    2.48      0.01     62.10    4.5943 BVILLE 14 10YRGAGE   12834               
  12858#1                    3.18      0.01     41.30    6.4560 BVILLE 14 10YRGAGE   12858               
  12863#1                    2.73      0.02     47.90    7.3866 BVILLE 14 10YRGAGE   12863               
  12864#1                    0.81      0.00     59.60   17.0334 BVILLE 14 10YRGAGE   12864               
  13#1                       2.23      0.01     26.80   14.2500 BVILLE 14 10YRGAGE   13                  
  13131#1                    0.97      0.01     60.90    5.4379 BVILLE 14 10YRGAGE   13131               
  1318#1                     2.24      0.01     58.20    7.5388 BVILLE 14 10YRGAGE   1318                
  1319#1                     0.40      0.00     39.30    5.1680 BVILLE 14 10YRGAGE   1319                
  1320#1                     0.09      0.00     93.00    6.0057 BVILLE 14 10YRGAGE   1320                
  1322#1                     0.86      0.00     59.00    6.3973 BVILLE 14 10YRGAGE   1322                
  13238#1                    0.73      0.00     33.00    4.8144 BVILLE 14 10YRGAGE   13238               
  1325#1                     7.28      0.02     49.30    5.6432 BVILLE 14 10YRGAGE   1325                
  13273#1                    8.10      0.01     23.50   12.4420 BVILLE 14 10YRGAGE   13273               
  13274#1                    2.79      0.01     24.30   15.9775 BVILLE 14 10YRGAGE   13274               
  1330#1                     3.58      0.01     49.50    6.5452 BVILLE 14 10YRGAGE   1330                
  1331#1                     0.24      0.00     59.40    3.8264 BVILLE 14 10YRGAGE   1331                
  13368#1                    4.38      0.02     85.70    5.0840 BVILLE 14 10YRGAGE   13368               
  1346#1                     0.33      0.00     68.80    4.9111 BVILLE 14 10YRGAGE   1346                
  13462#1                    7.98      0.02     74.60    6.0191 BVILLE 14 10YRGAGE   13462               
  13473#1                    0.22      0.00     18.70    6.5003 BVILLE 14 10YRGAGE   13473               
  1353#1                     2.80      0.01     44.50    5.6662 BVILLE 14 10YRGAGE   1353                
  1356#1                    10.46      0.02     12.10   13.2870 BVILLE 14 10YRGAGE   1356                
  1362#1                     6.72      0.02     33.30    8.9436 BVILLE 14 10YRGAGE   1362                
  1368#1                     0.40      0.01     36.70   10.6065 BVILLE 14 10YRGAGE   1368                
  13713#1                    2.46      0.01     17.90   17.5815 BVILLE 14 10YRGAGE   13713               
  13714#1                    0.54      0.01     32.30   12.9111 BVILLE 14 10YRGAGE   13714               
  13719#1                    6.40      0.02     27.90   19.2854 BVILLE 14 10YRGAGE   13719               
  13721#1                    5.67      0.02     21.10   11.1189 BVILLE 14 10YRGAGE   13721               
  1376#1                     2.75      0.01     49.10    7.7326 BVILLE 14 10YRGAGE   1376                
  1381#1                     1.79      0.01     47.70    7.4866 BVILLE 14 10YRGAGE   1381                
  1382#1                     1.37      0.01     60.60    7.6034 BVILLE 14 10YRGAGE   1382                
  1387#1                     5.08      0.02     56.80    5.9004 BVILLE 14 10YRGAGE   1387                
  1389#1                     1.11      0.01     38.40    4.6153 BVILLE 14 10YRGAGE   1389                
  1395#1                     1.64      0.01     65.50    5.9578 BVILLE 14 10YRGAGE   1395                
  1395#2                     1.35      0.01     59.10    6.4035 BVILLE 14 10YRGAGE   1395                
  13977#1                    0.73      0.01     43.00    5.1890 BVILLE 14 10YRGAGE   13977               
  13979#1                    9.26      0.02     33.10    7.6496 BVILLE 14 10YRGAGE   13979               
  1399#1                     1.29      0.01     41.90    7.1737 BVILLE 14 10YRGAGE   1399                
  13996#1                    3.83      0.01     29.70   15.8034 BVILLE 14 10YRGAGE   13996               
  1402#1                     0.91      0.02     47.40    4.2971 BVILLE 14 10YRGAGE   1402                
  1404#1                    15.75      0.02     51.70   10.3881 BVILLE 14 10YRGAGE   1404                
  14092#1                    0.81      0.01     26.20    8.1741 BVILLE 14 10YRGAGE   14092               
  14093#1                    3.32      0.02     23.60   11.5771 BVILLE 14 10YRGAGE   14093               
  14098#1                   11.37      0.02     26.30   10.7240 BVILLE 14 10YRGAGE   14098               
  14103#1                    5.90      0.01     19.30   11.3042 BVILLE 14 10YRGAGE   14103               
  14104#1                    0.52      0.01     41.90    8.0918 BVILLE 14 10YRGAGE   14104               
  14106#1                    2.89      0.01     20.70    7.3013 BVILLE 14 10YRGAGE   14106               
  14108#1                    6.97      0.02     24.50    9.9745 BVILLE 14 10YRGAGE   14108               
  14171#1                    0.62      0.01     63.40    4.2706 BVILLE 14 10YRGAGE   14171               
  14174#1                    5.25      0.02     21.70   10.9939 BVILLE 14 10YRGAGE   14174               
  1426#1                     0.44      0.01     72.10    3.8074 BVILLE 14 10YRGAGE   1426                
  1430#1                     0.52      0.01     61.40    5.1325 BVILLE 14 10YRGAGE   1430                
  1430#2                     0.56      0.01     25.50    6.6115 BVILLE 14 10YRGAGE   1430                
  1430#3                     2.31      0.01     51.50    9.5274 BVILLE 14 10YRGAGE   1430                
  1432#1                    11.05      0.02     56.00    5.3923 BVILLE 14 10YRGAGE   1432                
  14338#1                    0.50      0.00     79.50   17.6543 BVILLE 14 10YRGAGE   14338               
  1434#1                     0.80      0.01     51.70    6.4432 BVILLE 14 10YRGAGE   1434                
  1435#1                     3.62      0.01     49.60    7.9465 BVILLE 14 10YRGAGE   1435                
  1439#1                    11.45      0.02     45.00    8.5985 BVILLE 14 10YRGAGE   1439                
  1444#1                     2.08      0.01     31.00   12.2292 BVILLE 14 10YRGAGE   1444                
  1447#1                     4.65      0.02     33.90    8.6776 BVILLE 14 10YRGAGE   1447                
  1451#1                     0.23      0.01     74.50    5.7318 BVILLE 14 10YRGAGE   1451                
  1455#1                     1.19      0.01     89.90    4.3811 BVILLE 14 10YRGAGE   1455                
  1457#1                     4.76      0.01     79.50    7.9133 BVILLE 14 10YRGAGE   1457                
  1458#1                     0.85      0.00     94.40    8.0770 BVILLE 14 10YRGAGE   1458                
  1460#1                     2.64      0.01     46.80    8.4083 BVILLE 14 10YRGAGE   1460                
  1461#1                     0.28      0.00     45.10    7.6237 BVILLE 14 10YRGAGE   1461                
  1463#1                     2.73      0.01     43.50   10.9188 BVILLE 14 10YRGAGE   1463                
  14636#1                    1.14      0.01     18.00    4.1148 BVILLE 14 10YRGAGE   14636               
  14706#1                    0.48      0.01     46.00    9.9650 BVILLE 14 10YRGAGE   14706               
  14708#1                    0.70      0.01     28.30    5.6367 BVILLE 14 10YRGAGE   14708               
  14709#1                    1.72      0.01     15.30   14.5766 BVILLE 14 10YRGAGE   14709               
  14710#1                    1.27      0.01     16.10   11.1635 BVILLE 14 10YRGAGE   14710               
  14711#1                    0.34      0.00     35.60    6.1936 BVILLE 14 10YRGAGE   14711               
  14712#1                    1.22      0.01     41.50    9.0558 BVILLE 14 10YRGAGE   14712               
  1475#1                     1.47      0.01     43.30    5.9171 BVILLE 14 10YRGAGE   1475                
  1476#1                     0.31      0.01     92.20    4.9705 BVILLE 14 10YRGAGE   1476                
  1479#1                     5.05      0.01     44.40   11.8483 BVILLE 14 10YRGAGE   1479                
  1479#2                     5.84      0.02     20.80   15.5410 BVILLE 14 10YRGAGE   1479                
  1483#1                     3.13      0.02     47.80    7.4400 BVILLE 14 10YRGAGE   1483                
  1484#1                     3.89      0.02     28.90    7.6024 BVILLE 14 10YRGAGE   1484                
  1485#1                     4.72      0.02     27.60   15.6594 BVILLE 14 10YRGAGE   1485                
  1485#2                     0.44      0.01     14.30   12.0930 BVILLE 14 10YRGAGE   1485                
  1485#3                     0.92      0.01     37.10   16.4361 BVILLE 14 10YRGAGE   1485                
  1485#4                     1.30      0.02     21.00   21.3692 BVILLE 14 10YRGAGE   1485                
  1486#1                     0.73      0.01     34.20   13.1968 BVILLE 14 10YRGAGE   1486                
  1492#1                    10.54      0.02     36.50   14.0420 BVILLE 14 10YRGAGE   1492                
  15082#1                    8.16      0.02     34.00    5.2378 BVILLE 14 10YRGAGE   15082               
  1510#1                     0.94      0.02     72.10    6.2573 BVILLE 14 10YRGAGE   1510                
  15101#1                    7.43      0.02     38.20    7.1678 BVILLE 14 10YRGAGE   15101               
  1514#1                     7.04      0.02     34.80   10.3048 BVILLE 14 10YRGAGE   1514                
  1517#1                     0.27      0.01     66.10    8.8291 BVILLE 14 10YRGAGE   1517                
  1517#2                     2.55      0.02     57.80   10.6702 BVILLE 14 10YRGAGE   1517                
  1517#3                     0.64      0.00     65.30   11.6427 BVILLE 14 10YRGAGE   1517                
  1517#4                     1.56      0.01     58.20   10.3769 BVILLE 14 10YRGAGE   1517                
  1521#1                     0.72      0.01     78.50   12.1324 BVILLE 14 10YRGAGE   1521                
  1522#1                     1.72      0.00     42.20    7.6795 BVILLE 14 10YRGAGE   1522                
  1531#1                     5.91      0.01     47.30    7.8484 BVILLE 14 10YRGAGE   1531                
  1538#1                     4.26      0.02     54.90    8.2669 BVILLE 14 10YRGAGE   1538                
  1540#1                     8.62      0.03     48.80   12.9780 BVILLE 14 10YRGAGE   1540                
  15422#1                    1.99      0.01     57.60   15.8519 BVILLE 14 10YRGAGE   15422               
  1544#1                     0.93      0.01     73.20    3.1140 BVILLE 14 10YRGAGE   1544                
  1548#1                     4.30      0.01     40.90   14.3943 BVILLE 14 10YRGAGE   1548                
  15518#1                    2.65      0.01     34.30    9.5901 BVILLE 14 10YRGAGE   15518               
  1553#1                     2.81      0.01     18.30   13.9288 BVILLE 14 10YRGAGE   1553                
  1554#1                     1.07      0.01     56.30    7.9812 BVILLE 14 10YRGAGE   1554                
  1558#1                     4.67      0.01     29.90    9.4156 BVILLE 14 10YRGAGE   1558                
  1559#1                     3.43      0.01     19.60   11.5374 BVILLE 14 10YRGAGE   1559                
  1565#1                     0.89      0.01     75.80    4.4467 BVILLE 14 10YRGAGE   1565                
  1574#1                     2.90      0.01     92.80    3.9908 BVILLE 14 10YRGAGE   1574                
  1586#1                     2.40      0.01     75.10    7.8195 BVILLE 14 10YRGAGE   1586                
  1593#1                     8.70      0.03     19.60    5.7889 BVILLE 14 10YRGAGE   1593                
  1593#2                     4.51      0.03     35.40    4.6248 BVILLE 14 10YRGAGE   1593                
  1609#1                     1.41      0.01     67.50    5.0312 BVILLE 14 10YRGAGE   1609                
  161#1                      3.81      0.02     48.50    9.3982 BVILLE 14 10YRGAGE   161                 
  1615#1                     1.07      0.00     65.80    3.0770 BVILLE 14 10YRGAGE   1615                
  1616#1                     0.41      0.01     54.80    4.6727 BVILLE 14 10YRGAGE   1616                
  1616#2                     0.64      0.00     54.40    7.2786 BVILLE 14 10YRGAGE   1616                
  1618#1                     0.97      0.01     62.50    8.5651 BVILLE 14 10YRGAGE   1618                
  1624#1                     2.90      0.02     51.40    6.8463 BVILLE 14 10YRGAGE   1624                
  1628#1                     0.42      0.01     34.80    6.4983 BVILLE 14 10YRGAGE   1628                
  1633#1                     0.94      0.01     84.00    4.5877 BVILLE 14 10YRGAGE   1633                
  1635#1                     1.01      0.01     78.80    3.6762 BVILLE 14 10YRGAGE   1635                
  1638#1                     1.89      0.01     82.70    4.0446 BVILLE 14 10YRGAGE   1638                
  1640#1                     0.97      0.01     79.70    4.8911 BVILLE 14 10YRGAGE   1640                
  1655#1                     1.68      0.01     63.70    3.8438 BVILLE 14 10YRGAGE   1655                
  1656#1                     0.46      0.01     93.10    3.4174 BVILLE 14 10YRGAGE   1656                
  1657#1                     0.49      0.01     78.30   10.1195 BVILLE 14 10YRGAGE   1657                
  1659#1                     0.42      0.01     32.80    4.1935 BVILLE 14 10YRGAGE   1659                
  166#1                      5.16      0.01     45.90    8.6694 BVILLE 14 10YRGAGE   166                 
  1660#1                     0.49      0.01     70.40    3.9317 BVILLE 14 10YRGAGE   1660                
  1661#1                     0.71      0.00     53.50    4.7590 BVILLE 14 10YRGAGE   1661                
  1662#1                     2.30      0.00     95.20    3.9206 BVILLE 14 10YRGAGE   1662                
  1664#1                     0.63      0.01     58.80    4.5480 BVILLE 14 10YRGAGE   1664                
  1665#1                     0.68      0.01     59.90    3.9406 BVILLE 14 10YRGAGE   1665                
  1668#1                     5.63      0.01     83.80    4.4310 BVILLE 14 10YRGAGE   1668                
  1669#1                     1.28      0.01     75.20    3.8724 BVILLE 14 10YRGAGE   1669                
  1671#1                     2.89      0.01     64.70   10.1493 BVILLE 14 10YRGAGE   1671                
  1683#1                     1.50      0.01     11.80    8.3066 BVILLE 14 10YRGAGE   1683                
  1685#1                     0.48      0.01     47.80   16.6444 BVILLE 14 10YRGAGE   1685                
  1687#1                     1.29      0.01     64.10    7.8500 BVILLE 14 10YRGAGE   1687                
  1689#1                     0.79      0.01     28.10   23.8384 BVILLE 14 10YRGAGE   1689                
  1692#1                     0.98      0.01     64.80   20.3360 BVILLE 14 10YRGAGE   1692                
  1695#1                     0.97      0.01     69.10    7.3420 BVILLE 14 10YRGAGE   1695                
  1699#1                     0.19      0.01    100.00    6.4895 BVILLE 14 10YRGAGE   1699                
  1700#1                     1.52      0.01     24.20   14.4071 BVILLE 14 10YRGAGE   1700                
  1710#1                    29.13      0.03     19.40   13.4969 BVILLE 14 10YRGAGE   1710                
  1712#1                     1.56      0.01     89.50    7.8838 BVILLE 14 10YRGAGE   1712                
  1713#1                     0.28      0.00     79.40    6.7348 BVILLE 14 10YRGAGE   1713                
  1714#1                     1.12      0.01     79.90    6.4888 BVILLE 14 10YRGAGE   1714                
  1717#1                     1.18      0.00     89.00    5.7210 BVILLE 14 10YRGAGE   1717                
  1719#1                    11.16      0.04     35.80    9.1522 BVILLE 14 10YRGAGE   1719                
  1720#1                     0.29      0.01     13.20    6.9756 BVILLE 14 10YRGAGE   1720                
  1721#1                     0.81      0.01     33.20   23.4838 BVILLE 14 10YRGAGE   1721                
  1722#1                     0.89      0.01     31.20   18.9040 BVILLE 14 10YRGAGE   1722                
  1725#1                     0.18      0.01     79.30    7.2967 BVILLE 14 10YRGAGE   1725                
  1726#1                     0.73      0.01     30.00   17.6697 BVILLE 14 10YRGAGE   1726                
  1730#1                     0.99      0.01     56.70    9.7960 BVILLE 14 10YRGAGE   1730                
  1733#1                     0.78      0.00     69.10    5.6534 BVILLE 14 10YRGAGE   1733                
  174#1                      2.38      0.01     50.60   14.5940 BVILLE 14 10YRGAGE   174                 
  1742#1                     0.26      0.01     64.70    4.7012 BVILLE 14 10YRGAGE   1742                
  1745#1                     0.71      0.01     46.80    6.1907 BVILLE 14 10YRGAGE   1745                
  1746#1                     2.78      0.01     56.90    6.4826 BVILLE 14 10YRGAGE   1746                
  176#1                      7.59      0.01     39.90    8.4663 BVILLE 14 10YRGAGE   176                 
  177#1                      1.42      0.01     41.30   10.5016 BVILLE 14 10YRGAGE   177                 
  1772#1                     5.09      0.02     57.20    7.2809 BVILLE 14 10YRGAGE   1772                
  1796#1                     1.76      0.02     44.50   16.8405 BVILLE 14 10YRGAGE   1796                
  1798#1                     0.66      0.01     17.20   31.6848 BVILLE 14 10YRGAGE   1798                
  1802#1                     1.12      0.01     35.20   12.4925 BVILLE 14 10YRGAGE   1802                
  1804#1                     3.59      0.02     43.70    8.3502 BVILLE 14 10YRGAGE   1804                
  1807#1                     2.51      0.02     15.70    5.2083 BVILLE 14 10YRGAGE   1807                
  181#1                      2.46      0.01     43.80    7.9645 BVILLE 14 10YRGAGE   181                 
  1816#1                     4.33      0.00     74.90   11.9946 BVILLE 14 10YRGAGE   1816                
  1828#1                    14.96      0.03     52.10   17.5641 BVILLE 14 10YRGAGE   1828                
  1828#2                    11.68      0.03     38.60   17.3378 BVILLE 14 10YRGAGE   1828                
  1833#1                     1.42      0.02     41.10    3.6877 BVILLE 14 10YRGAGE   1833                
  1843#1                     2.09      0.01     59.30   11.9287 BVILLE 14 10YRGAGE   1843                
  1847#1                     3.01      0.02     65.10   13.8088 BVILLE 14 10YRGAGE   1847                
  1852#1                     1.41      0.01     64.20   21.5325 BVILLE 14 10YRGAGE   1852                
  1858#1                     0.22      0.00     87.70    9.1879 BVILLE 14 10YRGAGE   1858                
  186#1                      1.63      0.01     47.80    8.6585 BVILLE 14 10YRGAGE   186                 
  1861#1                     2.70      0.01     70.80   12.3171 BVILLE 14 10YRGAGE   1861                
  1866#1                     2.68      0.01     52.50   10.6019 BVILLE 14 10YRGAGE   1866                
  1869#1                     1.24      0.01     72.00    6.1805 BVILLE 14 10YRGAGE   1869                
  1872#1                     3.21      0.02     54.00    5.1319 BVILLE 14 10YRGAGE   1872                
  1875#1                     2.62      0.01     15.10   29.0326 BVILLE 14 10YRGAGE   1875                
  1879#1                     2.75      0.01     40.10    8.0531 BVILLE 14 10YRGAGE   1879                
  1888#1                     0.48      0.01     89.80    3.9557 BVILLE 14 10YRGAGE   1888                
  1890#1                     1.11      0.01     51.40    9.7521 BVILLE 14 10YRGAGE   1890                
  1898#1                     1.22      0.01     66.10   10.8276 BVILLE 14 10YRGAGE   1898                
  1898#2                     2.41      0.01     55.90   11.8831 BVILLE 14 10YRGAGE   1898                
  1898#3                     3.43      0.01     34.50   10.5311 BVILLE 14 10YRGAGE   1898                
  1898#4                     2.22      0.01     40.80   18.0866 BVILLE 14 10YRGAGE   1898                
  1907#1                     1.18      0.01     37.70    6.8116 BVILLE 14 10YRGAGE   1907                
  1908#1                     0.96      0.01     58.80    7.6027 BVILLE 14 10YRGAGE   1908                
  1913#1                     2.39      0.01     47.70   12.7461 BVILLE 14 10YRGAGE   1913                
  192#1                      2.99      0.01     60.50    4.7373 BVILLE 14 10YRGAGE   192                 
  1922#1                     0.28      0.00     49.70    6.3612 BVILLE 14 10YRGAGE   1922                
  1924#1                     1.76      0.01     71.30   16.7792 BVILLE 14 10YRGAGE   1924                
  1925#1                     0.56      0.01     89.00    7.1087 BVILLE 14 10YRGAGE   1925                
  1926#1                     1.38      0.01     59.60    3.9347 BVILLE 14 10YRGAGE   1926                
  1930#1                     0.52      0.00     76.80    4.6848 BVILLE 14 10YRGAGE   1930                
  1934#1                     2.01      0.01     65.90    5.3238 BVILLE 14 10YRGAGE   1934                
  1935#1                     6.82      0.03     62.40    6.7043 BVILLE 14 10YRGAGE   1935                
  1960#1                     1.93      0.01     63.50    6.0844 BVILLE 14 10YRGAGE   1960                
  1965#1                     1.71      0.01     69.60    4.1216 BVILLE 14 10YRGAGE   1965                
  1968#1                     1.68      0.01     50.20    7.0015 BVILLE 14 10YRGAGE   1968                
  1978#1                     2.47      0.01     55.20    6.3645 BVILLE 14 10YRGAGE   1978                
  1979#1                     2.28      0.01     58.70    7.2340 BVILLE 14 10YRGAGE   1979                
  1982#1                     2.88      0.02     54.50    8.5214 BVILLE 14 10YRGAGE   1982                
  1985#1                     0.98      0.02     43.10   10.4173 BVILLE 14 10YRGAGE   1985                
  1997#1                     4.09      0.01     82.90    7.4036 BVILLE 14 10YRGAGE   1997                
  1998#1                     0.95      0.01     85.00   11.4196 BVILLE 14 10YRGAGE   1998                
  2000#1                     2.50      0.01     75.60    6.5912 BVILLE 14 10YRGAGE   2000                
  2013#1                     5.59      0.02     54.80    6.9546 BVILLE 14 10YRGAGE   2013                
  202#1                      1.71      0.01     35.00    6.9136 BVILLE 14 10YRGAGE   202                 
  2025#1                     4.33      0.01     67.80    8.1013 BVILLE 14 10YRGAGE   2025                
  2036#1                     0.92      0.01     50.40   10.3723 BVILLE 14 10YRGAGE   2036                
  2048#1                     0.08      0.00     16.10    6.7706 BVILLE 14 10YRGAGE   2048                
  2049#1                     1.46      0.01     81.60    4.7235 BVILLE 14 10YRGAGE   2049                
  2050#1                     2.15      0.01     71.70    7.5253 BVILLE 14 10YRGAGE   2050                
  2052#1                     1.53      0.01     68.40    6.6440 BVILLE 14 10YRGAGE   2052                
  2054#1                     0.33      0.00     75.20    5.8286 BVILLE 14 10YRGAGE   2054                
  2055#1                     0.77      0.00     41.60    8.0245 BVILLE 14 10YRGAGE   2055                
  2058#1                     4.73      0.01     34.70    6.7279 BVILLE 14 10YRGAGE   2058                
  2059#1                     1.55      0.01     21.70    8.9232 BVILLE 14 10YRGAGE   2059                
  2060#1                     0.47      0.00     60.30    7.6329 BVILLE 14 10YRGAGE   2060                
  2062#1                     0.58      0.01     49.60    5.0561 BVILLE 14 10YRGAGE   2062                
  2067#1                     1.24      0.01     76.90    8.6553 BVILLE 14 10YRGAGE   2067                
  2067#2                     0.10      0.00     42.30    7.7634 BVILLE 14 10YRGAGE   2067                
  2067#3                     0.44      0.01     68.70   10.5052 BVILLE 14 10YRGAGE   2067                
  2067#4                     1.83      0.01     77.10    4.6041 BVILLE 14 10YRGAGE   2067                
  2067#5                     1.86      0.01     75.20    5.9906 BVILLE 14 10YRGAGE   2067                
  2070#1                     4.54      0.02     40.90   11.6538 BVILLE 14 10YRGAGE   2070                
  2079#1                     9.18      0.02     62.20   10.0611 BVILLE 14 10YRGAGE   2079                
  2084#1                     0.40      0.02     80.00    4.6248 BVILLE 14 10YRGAGE   2084                
  2085#1                     0.84      0.00     79.90    4.5825 BVILLE 14 10YRGAGE   2085                
  210#1                      3.66      0.03     32.90    8.0695 BVILLE 14 10YRGAGE   210                 
  2102#1                     2.17      0.01     32.00   10.1969 BVILLE 14 10YRGAGE   2102                
  2105#1                     2.13      0.01     26.90   11.2957 BVILLE 14 10YRGAGE   2105                
  2107#1                     0.14      0.00     67.70    7.1383 BVILLE 14 10YRGAGE   2107                
  2109#1                    15.14      0.04     37.70   10.7289 BVILLE 14 10YRGAGE   2109                
  2117#1                     5.20      0.01     67.20    6.8129 BVILLE 14 10YRGAGE   2117                
  2118#1                     0.20      0.01     97.40    5.3598 BVILLE 14 10YRGAGE   2118                
  2119#1                     0.11      0.00     89.50   17.9865 BVILLE 14 10YRGAGE   2119                
  212#1                      1.60      0.01     22.30    9.1023 BVILLE 14 10YRGAGE   212                 
  2124#1                     2.74      0.01     52.30   10.0916 BVILLE 14 10YRGAGE   2124                
  213#1                      2.98      0.02     45.30   10.3458 BVILLE 14 10YRGAGE   213                 
  2146#1                     1.47      0.01     41.00    5.7922 BVILLE 14 10YRGAGE   2146                
  2151#1                     6.21      0.02     62.50    7.5427 BVILLE 14 10YRGAGE   2151                
  2159#1                     6.61      0.03     32.00   10.8784 BVILLE 14 10YRGAGE   2159                
  2164#1                     0.21      0.00     93.40    2.8375 BVILLE 14 10YRGAGE   2164                
  2165#1                     0.76      0.02     75.30    2.9146 BVILLE 14 10YRGAGE   2165                
  217#1                      3.26      0.01     27.20   12.2849 BVILLE 14 10YRGAGE   217                 
  2173#1                     4.96      0.02     30.00   12.1193 BVILLE 14 10YRGAGE   2173                
  2179#1                     0.20      0.01     87.00    4.3657 BVILLE 14 10YRGAGE   2179                
  2188#1                    11.16      0.05     38.90    7.5319 BVILLE 14 10YRGAGE   2188                
  219#1                      1.42      0.01     47.50    9.3644 BVILLE 14 10YRGAGE   219                 
  2191#1                    15.33      0.05     48.10   10.6744 BVILLE 14 10YRGAGE   2191                
  2195#1                     4.16      0.03     27.90   10.5137 BVILLE 14 10YRGAGE   2195                
  2197#1                    14.05      0.06     50.70    8.4483 BVILLE 14 10YRGAGE   2197                
  222#1                      9.21      0.01     22.00    9.4854 BVILLE 14 10YRGAGE   222                 
  2223#1                     0.19      0.00     89.40    3.6838 BVILLE 14 10YRGAGE   2223                
  2232#1                    10.39      0.03     49.70    8.8672 BVILLE 14 10YRGAGE   2232                
  2234#1                     0.44      0.01     82.30    4.8652 BVILLE 14 10YRGAGE   2234                
  2241#1                     0.52      0.01     52.60    4.6943 BVILLE 14 10YRGAGE   2241                
  2242#1                     1.58      0.01     46.70   10.1149 BVILLE 14 10YRGAGE   2242                
  2248#1                    18.20      0.03     56.60   10.8374 BVILLE 14 10YRGAGE   2248                
  2249#1                     0.25      0.00     60.90    7.6552 BVILLE 14 10YRGAGE   2249                
  2251#1                     0.38      0.01     28.30    4.4064 BVILLE 14 10YRGAGE   2251                
  2252#1                     3.21      0.01     51.10   11.1740 BVILLE 14 10YRGAGE   2252                
  2261#1                     2.00      0.01     52.00    5.4441 BVILLE 14 10YRGAGE   2261                
  2263#1                     0.38      0.01     64.80    5.2480 BVILLE 14 10YRGAGE   2263                
  2264#1                     2.49      0.01     72.30    6.4003 BVILLE 14 10YRGAGE   2264                
  231#1                      1.43      0.01     34.30    6.4616 BVILLE 14 10YRGAGE   231                 
  233#1                      0.48      0.00     63.50    5.0364 BVILLE 14 10YRGAGE   233                 
  239#1                      8.58      0.01     25.70   10.1824 BVILLE 14 10YRGAGE   239                 
  240#1                      1.16      0.01     24.30   11.7555 BVILLE 14 10YRGAGE   240                 
  244#1                      2.83      0.02     35.30    6.9877 BVILLE 14 10YRGAGE   244                 
  254#1                      5.96      0.02     29.00    6.4268 BVILLE 14 10YRGAGE   254                 
  259#1                      1.04      0.01     41.60    6.3130 BVILLE 14 10YRGAGE   259                 
  266#1                      4.14      0.01     27.00   10.1982 BVILLE 14 10YRGAGE   266                 
  27#1                      20.27      0.03     28.50   13.0514 BVILLE 14 10YRGAGE   27                  
  271#1                      1.94      0.01     27.70    7.5414 BVILLE 14 10YRGAGE   271                 
  272#1                     14.09      0.03     24.00   12.1183 BVILLE 14 10YRGAGE   272                 
  2878#1                     6.19      0.02     34.70   11.7850 BVILLE 14 10YRGAGE   2878                
  288#1                      6.45      0.01     22.40    9.6990 BVILLE 14 10YRGAGE   288                 
  291#1                      5.13      0.01     23.10   10.2448 BVILLE 14 10YRGAGE   291                 
  294#1                      1.94      0.01     30.70    8.9820 BVILLE 14 10YRGAGE   294                 
  303#1                      7.54      0.01     34.60   11.1297 BVILLE 14 10YRGAGE   303                 
  307#1                      2.52      0.02     71.40    6.5065 BVILLE 14 10YRGAGE   307                 
  31#1                       2.79      0.01     42.20   11.5217 BVILLE 14 10YRGAGE   31                  
  320#1                      2.53      0.01     19.20   12.4158 BVILLE 14 10YRGAGE   320                 
  321#1                      5.13      0.02     18.60    8.7320 BVILLE 14 10YRGAGE   321                 
  323#1                      0.55      0.01     12.70   10.1483 BVILLE 14 10YRGAGE   323                 
  324#1                      0.44      0.01     12.90    6.7161 BVILLE 14 10YRGAGE   324                 
  326#1                      4.15      0.02     14.60   10.3943 BVILLE 14 10YRGAGE   326                 
  39#1                       2.45      0.02     45.60    7.5453 BVILLE 14 10YRGAGE   39                  
  3958#1                     2.50      0.02     40.60   11.4679 BVILLE 14 10YRGAGE   3958                
  3975#1                     0.69      0.01     62.60   11.4026 BVILLE 14 10YRGAGE   3975                
  3976#1                     3.65      0.01     28.10   12.9350 BVILLE 14 10YRGAGE   3976                
  3977#1                     0.43      0.01    100.00    4.6743 BVILLE 14 10YRGAGE   3977                
  3980#1                     0.96      0.01     99.90    3.7953 BVILLE 14 10YRGAGE   3980                
  3997#1                     0.15      0.00     84.20    2.9773 BVILLE 14 10YRGAGE   3997                
  44#1                       0.58      0.00     43.50   11.1399 BVILLE 14 10YRGAGE   44                  
  486#1                      8.51      0.02     17.50   18.6639 BVILLE 14 10YRGAGE   486                 
  5306#1                     6.34      0.01     36.50    6.8237 BVILLE 14 10YRGAGE   5306                
  5307#1                     2.25      0.01     45.00   11.2629 BVILLE 14 10YRGAGE   5307                
  5310#1                     0.09      0.00     52.20    4.6632 BVILLE 14 10YRGAGE   5310                
  5319#1                     3.90      0.01     30.50    7.0960 BVILLE 14 10YRGAGE   5319                
  5321#1                     2.64      0.01     21.60   10.2366 BVILLE 14 10YRGAGE   5321                
  5322#1                     8.14      0.02     30.70    9.0059 BVILLE 14 10YRGAGE   5322                
  5338#1                     1.12      0.01     46.00    8.3998 BVILLE 14 10YRGAGE   5338                
  5340#1                     3.55      0.01     24.70    8.6530 BVILLE 14 10YRGAGE   5340                
  5341#1                     7.56      0.02     27.50    7.6988 BVILLE 14 10YRGAGE   5341                
  5353#1                    11.55      0.02     26.80    8.4555 BVILLE 14 10YRGAGE   5353                
  5356#1                     2.46      0.01     31.70    7.6968 BVILLE 14 10YRGAGE   5356                
  5361#1                    10.65      0.02     27.80   13.7337 BVILLE 14 10YRGAGE   5361                
  5363#1                     0.16      0.00     36.30    4.3250 BVILLE 14 10YRGAGE   5363                
  5364#1                     2.62      0.01     31.20    5.7302 BVILLE 14 10YRGAGE   5364                
  5366#1                     3.91      0.02     19.70   12.9609 BVILLE 14 10YRGAGE   5366                
  5373#1                     4.51      0.01     26.90   10.9270 BVILLE 14 10YRGAGE   5373                
  5388#1                    13.80      0.03     37.80    9.2532 BVILLE 14 10YRGAGE   5388                
  5389#1                     6.80      0.03     32.30   11.0648 BVILLE 14 10YRGAGE   5389                
  5390#1                     0.47      0.01     41.60    7.3987 BVILLE 14 10YRGAGE   5390                
  5391#1                     6.04      0.01     48.20    8.8527 BVILLE 14 10YRGAGE   5391                
  5392#1                     6.51      0.02     42.30    6.7699 BVILLE 14 10YRGAGE   5392                
  54#1                       1.19      0.01     23.90   12.1829 BVILLE 14 10YRGAGE   54                  
  5403#1                     5.30      0.02     31.10   13.3283 BVILLE 14 10YRGAGE   5403                
  5406#1                     7.99      0.02     17.50   14.7987 BVILLE 14 10YRGAGE   5406                
  5407#1                     1.76      0.01     31.10   10.2503 BVILLE 14 10YRGAGE   5407                
  5408#1                     3.65      0.01     54.20    8.5401 BVILLE 14 10YRGAGE   5408                
  5413#1                     1.85      0.01     37.20   12.6431 BVILLE 14 10YRGAGE   5413                
  5415#1                     0.82      0.01     25.90   15.0795 BVILLE 14 10YRGAGE   5415                
  5419#1                     1.10      0.01     77.40   13.5454 BVILLE 14 10YRGAGE   5419                
  5420#1                     1.17      0.02     26.00   18.8787 BVILLE 14 10YRGAGE   5420                
  5433#1                     0.66      0.02     43.50   13.1439 BVILLE 14 10YRGAGE   5433                
  5434#1                     1.86      0.02     66.00    9.1971 BVILLE 14 10YRGAGE   5434                
  5438#1                     7.69      0.01     38.40   13.8600 BVILLE 14 10YRGAGE   5438                
  5446#1                     2.10      0.01     35.60   17.7592 BVILLE 14 10YRGAGE   5446                
  5451#1                     5.10      0.02      6.80   23.5005 BVILLE 14 10YRGAGE   5451                
  5453#1                     3.84      0.01      9.00   23.2850 BVILLE 14 10YRGAGE   5453                
  5457#1                     6.90      0.02      6.70   23.7390 BVILLE 14 10YRGAGE   5457                
  5458#1                     0.22      0.01     50.50    7.7408 BVILLE 14 10YRGAGE   5458                
  5480#1                     8.27      0.01     19.90   12.9160 BVILLE 14 10YRGAGE   5480                
  5482#1                     2.35      0.01     17.90   11.9254 BVILLE 14 10YRGAGE   5482                
  5488#1                     4.53      0.01     39.60    6.1388 BVILLE 14 10YRGAGE   5488                
  5489#1                     2.27      0.01     37.30    9.9974 BVILLE 14 10YRGAGE   5489                
  55#1                       0.72      0.01     44.40   11.4095 BVILLE 14 10YRGAGE   55                  
  550#1                     15.22      0.04     54.30    8.7789 BVILLE 14 10YRGAGE   550                 
  5510#1                     0.60      0.01     50.60    4.5871 BVILLE 14 10YRGAGE   5510                
  5512#1                     1.02      0.01     41.30    6.6404 BVILLE 14 10YRGAGE   5512                
  5515#1                     4.02      0.01     29.10   10.3848 BVILLE 14 10YRGAGE   5515                
  5521#1                     2.48      0.01     58.50    6.3068 BVILLE 14 10YRGAGE   5521                
  5549#1                     3.13      0.01     37.20    6.8949 BVILLE 14 10YRGAGE   5549                
  5555#1                     2.72      0.01     45.10    6.0040 BVILLE 14 10YRGAGE   5555                
  5563#1                     3.96      0.01     43.60    9.3182 BVILLE 14 10YRGAGE   5563                
  5564#1                    11.96      0.04     17.70   15.3484 BVILLE 14 10YRGAGE   5564                
  5571#1                    10.64      0.03     35.40    9.2345 BVILLE 14 10YRGAGE   5571                
  5577#1                    17.62      0.02     33.90   12.3016 BVILLE 14 10YRGAGE   5577                
  5581#1                     5.78      0.01     26.50    8.4565 BVILLE 14 10YRGAGE   5581                
  5591#1                     3.93      0.01     39.70   10.4648 BVILLE 14 10YRGAGE   5591                
  5597#1                     1.93      0.01     31.10    7.7260 BVILLE 14 10YRGAGE   5597                
  5598#1                     0.46      0.01     47.00    6.0657 BVILLE 14 10YRGAGE   5598                
  56#1                       3.01      0.01     28.80   11.9582 BVILLE 14 10YRGAGE   56                  
  5621#1                     2.76      0.01     36.70    9.6629 BVILLE 14 10YRGAGE   5621                
  5712#1                     6.17      0.02     34.70    5.8660 BVILLE 14 10YRGAGE   5712                
  5717#1                     3.53      0.01     33.90    5.4478 BVILLE 14 10YRGAGE   5717                
  5723#1                     2.78      0.01     36.20    6.1953 BVILLE 14 10YRGAGE   5723                
  5725#1                     3.64      0.02     41.60    8.3938 BVILLE 14 10YRGAGE   5725                
  5735#1                     2.27      0.02     50.90    8.3210 BVILLE 14 10YRGAGE   5735                
  5738#1                     3.07      0.01     38.60   14.3923 BVILLE 14 10YRGAGE   5738                
  5740#1                     3.50      0.01     26.90   12.2114 BVILLE 14 10YRGAGE   5740                
  5742#1                     2.31      0.01     41.60   13.0806 BVILLE 14 10YRGAGE   5742                
  5749#1                    12.76      0.02     16.20   10.3346 BVILLE 14 10YRGAGE   5749                
  5765#1                     8.41      0.02     34.90    9.4753 BVILLE 14 10YRGAGE   5765                
  5802#1                     3.36      0.01     31.40    9.0482 BVILLE 14 10YRGAGE   5802                
  5829#1                     0.63      0.00     48.80    8.7537 BVILLE 14 10YRGAGE   5829                
  5832#1                     0.43      0.00     65.50   10.2339 BVILLE 14 10YRGAGE   5832                
  6848#1                     1.65      0.01     86.40    6.1798 BVILLE 14 10YRGAGE   6848                
  6849#1                     1.73      0.01     77.70    7.7474 BVILLE 14 10YRGAGE   6849                
  6855#1                     2.54      0.00     28.20    9.7826 BVILLE 14 10YRGAGE   6855                
  6860#1                     0.55      0.01     68.20    5.2742 BVILLE 14 10YRGAGE   6860                
  6869#1                     3.31      0.01     67.70    9.3897 BVILLE 14 10YRGAGE   6869                
  6870#1                     0.08      0.00     75.40   11.2671 BVILLE 14 10YRGAGE   6870                
  6871#1                     0.01      0.00     85.50    4.2161 BVILLE 14 10YRGAGE   6871                
  6873#1                     0.32      0.01     66.40    7.8563 BVILLE 14 10YRGAGE   6873                
  6875#1                     0.61      0.00     75.50   10.7623 BVILLE 14 10YRGAGE   6875                
  6878#1                     0.18      0.00     89.90    7.9078 BVILLE 14 10YRGAGE   6878                
  6880#1                     0.28      0.01     58.70    8.0826 BVILLE 14 10YRGAGE   6880                
  6881#1                     1.10      0.01     94.70    7.2199 BVILLE 14 10YRGAGE   6881                
  6919#1                     0.05      0.00     35.60    6.6840 BVILLE 14 10YRGAGE   6919                
  6920#1                     0.30      0.00     55.70   22.5434 BVILLE 14 10YRGAGE   6920                
  6923#1                     2.12      0.01     71.50    5.3484 BVILLE 14 10YRGAGE   6923                
  6927#1                     0.41      0.01     48.30   18.1689 BVILLE 14 10YRGAGE   6927                
  6934#1                     4.02      0.01     11.40   11.2822 BVILLE 14 10YRGAGE   6934                
  6937#1                     4.76      0.01     11.90    6.2822 BVILLE 14 10YRGAGE   6937                
  7289#1                     1.28      0.01     47.70   19.0912 BVILLE 14 10YRGAGE   7289                
  7840#1                     2.42      0.01     96.10   10.3845 BVILLE 14 10YRGAGE   7840                
  7844#1                     0.72      0.01     78.20    5.8509 BVILLE 14 10YRGAGE   7844                
  7846#1                     1.60      0.01     93.60    7.5647 BVILLE 14 10YRGAGE   7846                
  834#1                      1.04      0.01     45.30    5.3382 BVILLE 14 10YRGAGE   834                 
  835#1                      2.55      0.01     52.40    6.1352 BVILLE 14 10YRGAGE   835                 
  838#1                      2.41      0.01     60.00    6.3970 BVILLE 14 10YRGAGE   838                 
  841#1                      1.17      0.01     70.60    3.8730 BVILLE 14 10YRGAGE   841                 
  846#1                      1.24      0.01     88.20    5.1034 BVILLE 14 10YRGAGE   846                 
  849#1                      3.64      0.01     69.40    5.3395 BVILLE 14 10YRGAGE   849                 
  854#1                      1.18      0.01     68.80    5.0781 BVILLE 14 10YRGAGE   854                 
  855#1                      0.30      0.00     66.40    8.1757 BVILLE 14 10YRGAGE   855                 
  856#1                      3.16      0.01     72.30    5.1073 BVILLE 14 10YRGAGE   856                 
  861#1                      1.92      0.01     68.30    2.5610 BVILLE 14 10YRGAGE   861                 
  866#1                      0.82      0.00     98.00    4.3345 BVILLE 14 10YRGAGE   866                 
  867#1                      0.45      0.00     78.40    3.8789 BVILLE 14 10YRGAGE   867                 
  868#1                      0.21      0.00     76.10    3.4975 BVILLE 14 10YRGAGE   868                 
  869#1                      1.43      0.01     67.50    8.2420 BVILLE 14 10YRGAGE   869                 
  871#1                      2.67      0.01     80.20    4.8908 BVILLE 14 10YRGAGE   871                 
  8722#1                     0.72      0.01     33.30   10.0060 BVILLE 14 10YRGAGE   8722                
  8728#1                     1.27      0.01     97.90    6.4911 BVILLE 14 10YRGAGE   8728                
  8733#1                     1.80      0.01     52.40    5.0476 BVILLE 14 10YRGAGE   8733                
  916#1                      7.42      0.02     54.50    5.0866 BVILLE 14 10YRGAGE   916                 
  918#1                      0.35      0.00     38.60    5.9814 BVILLE 14 10YRGAGE   918                 
  921#1                      0.43      0.01     80.40    2.5286 BVILLE 14 10YRGAGE   921                 
  922#1                      0.59      0.01     92.60    3.0271 BVILLE 14 10YRGAGE   922                 
  923#1                      1.43      0.01     70.00    4.1348 BVILLE 14 10YRGAGE   923                 
  925#1                      1.15      0.01     84.20    6.5429 BVILLE 14 10YRGAGE   925                 
  932#1                      1.10      0.01     60.10    8.8357 BVILLE 14 10YRGAGE   932                 
  935#1                      2.68      0.01     59.10    6.2700 BVILLE 14 10YRGAGE   935                 
  940#1                      2.77      0.01     81.50    6.8992 BVILLE 14 10YRGAGE   940                 
  944#1                     13.55      0.03     72.90   10.8148 BVILLE 14 10YRGAGE   944                 
  948#1                      2.62      0.01     55.90   10.3887 BVILLE 14 10YRGAGE   948                 
  950#1                      2.09      0.01     46.30    5.6760 BVILLE 14 10YRGAGE   950                 
  951#1                      0.91      0.01     60.10    5.0368 BVILLE 14 10YRGAGE   951                 
  956#1                      0.69      0.01     67.90    4.0954 BVILLE 14 10YRGAGE   956                 
  959#1                      1.95      0.01     79.90    5.8715 BVILLE 14 10YRGAGE   959                 
  963#1                      2.49      0.01     77.80    4.4546 BVILLE 14 10YRGAGE   963                 
  973#1                      1.55      0.01     77.40    5.1283 BVILLE 14 10YRGAGE   973                 
  973#2                      1.35      0.01     69.50    4.7383 BVILLE 14 10YRGAGE   973                 
  975#1                      1.64      0.00     38.90    4.3057 BVILLE 14 10YRGAGE   975                 
  979#1                      4.55      0.01     90.90    5.4602 BVILLE 14 10YRGAGE   979                 
  982#1                      0.14      0.00     11.90    4.0036 BVILLE 14 10YRGAGE   982                 
  984#1                      4.32      0.01     49.20    3.7982 BVILLE 14 10YRGAGE   984                 
  988#1                      0.12      0.00      0.00    5.8994 BVILLE 14 10YRGAGE   988                 
  991#1                      1.33      0.02     74.50    4.6419 BVILLE 14 10YRGAGE   991                 
  992#1                      1.06      0.01     68.80    5.4074 BVILLE 14 10YRGAGE   992                 
  998#1                      4.42      0.02     57.00    7.3830 BVILLE 14 10YRGAGE   998                 
  998#2                      0.85      0.01     83.40    3.2800 BVILLE 14 10YRGAGE   998                 
  BDW1-A#1                   8.62      0.01     15.50   10.0853 BVILLE 14 10YRGAGE   BDW1-A              
  BDW1-C#1                   0.59      0.00     16.20   21.3200 BVILLE 14 10YRGAGE   BDW1-C              
  BDW1-E#1                   0.84      0.01     22.50   21.1754 BVILLE 14 10YRGAGE   BDW1-E              
  BDW1-F#1                   1.10      0.01     57.40   14.5465 BVILLE 14 10YRGAGE   BDW1-F              
  BDW1-H#1                   1.20      0.01     51.60    8.9157 BVILLE 14 10YRGAGE   BDW1-H              
  BDW1-I#1                   3.64      0.01     23.00   13.9039 BVILLE 14 10YRGAGE   BDW1-I              
  BDW1-J#1                   9.68      0.03     35.30   12.7825 BVILLE 14 10YRGAGE   BDW1-J              
  BDW1-K#1                  21.34      0.03     16.00   13.3762 BVILLE 14 10YRGAGE   BDW1-K              
  BDW1-L#1                   4.84      0.02     35.30   14.3589 BVILLE 14 10YRGAGE   BDW1-L              
  BDW3-E#1                   5.62      0.02     32.30    9.5983 BVILLE 14 10YRGAGE   BDW3-E              
  C1-A#1                     4.68      0.01     30.90   10.1683 BVILLE 14 10YRGAGE   C1-A                
  C1-B#1                     4.91      0.02     27.70   11.1677 BVILLE 14 10YRGAGE   C1-B                
  C1-C#1                     6.77      0.01      3.90    9.7003 BVILLE 14 10YRGAGE   C1-C                
  C1-D#1                     1.00      0.00     17.70   14.7252 BVILLE 14 10YRGAGE   C1-D                
  C1-E#1                     1.23      0.00     22.90   18.1853 BVILLE 14 10YRGAGE   C1-E                
  C1-F#1                     4.45      0.01     61.90    5.7285 BVILLE 14 10YRGAGE   C1-F                
  C1-G#1                     1.67      0.01      8.70   20.3445 BVILLE 14 10YRGAGE   C1-G                
  C1-H#1                     1.87      0.00     13.30   23.5278 BVILLE 14 10YRGAGE   C1-H                
  C1-K#1                     7.67      0.02     25.80    8.9721 BVILLE 14 10YRGAGE   C1-K                
  C1-L#1                     5.33      0.01     27.60    9.7839 BVILLE 14 10YRGAGE   C1-L                
  C1-M#1                     2.16      0.01      4.60   11.3094 BVILLE 14 10YRGAGE   C1-M                
  C1-N#1                     6.75      0.01     59.90   15.4232 BVILLE 14 10YRGAGE   C1-N                
  C11-A#1                   10.70      0.02     33.10   16.1219 BVILLE 14 10YRGAGE   C11-A               
  C12-A#1                   14.19      0.02     22.10   20.6109 BVILLE 14 10YRGAGE   C12-A               
  C13-A#1                   22.92      0.02     24.90   13.2804 BVILLE 14 10YRGAGE   C13-A               
  C14-A#1                   18.43      0.02      8.30   10.6128 BVILLE 14 10YRGAGE   C14-A               
  C14-B#1                    5.10      0.01     10.10   22.2682 BVILLE 14 10YRGAGE   C14-B               
  C14-C#1                   36.26      0.02     19.70   15.4360 BVILLE 14 10YRGAGE   C14-C               
  C15-A#1                    5.38      0.01     18.10   11.2658 BVILLE 14 10YRGAGE   C15-A               
  C16-A#1                    4.88      0.01      4.20   11.7148 BVILLE 14 10YRGAGE   C16-A               
  C16-B#1                    5.83      0.02     34.10    8.8504 BVILLE 14 10YRGAGE   C16-B               
  C16-C#1                    0.53      0.00     16.70   16.9425 BVILLE 14 10YRGAGE   C16-C               
  C2-A#1                     2.21      0.00     23.80   12.6280 BVILLE 14 10YRGAGE   C2-A                
  C2-B#1                     2.13      0.01     39.00   14.0522 BVILLE 14 10YRGAGE   C2-B                
  C2-C#1                     1.00      0.00     68.50   12.0789 BVILLE 14 10YRGAGE   C2-C                
  C2-D#1                     3.19      0.01     75.90    5.3152 BVILLE 14 10YRGAGE   C2-D                
  C4-A#1                     3.79      0.01      6.80   18.2368 BVILLE 14 10YRGAGE   C4-A                
  C5-A#1                    19.57      0.01     10.60    8.8544 BVILLE 14 10YRGAGE   C5-A                
  C5-B#1                     3.65      0.01      5.60   10.1352 BVILLE 14 10YRGAGE   C5-B                
  C5-C#1                    14.52      0.01     27.00   12.4446 BVILLE 14 10YRGAGE   C5-C                
  C6-A#1                    17.22      0.01     22.20    8.2528 BVILLE 14 10YRGAGE   C6-A                
  C6-B#1                     7.28      0.01     38.80    6.3717 BVILLE 14 10YRGAGE   C6-B                
  C6-C#1                     9.45      0.02     25.90   10.2060 BVILLE 14 10YRGAGE   C6-C                
  C7-A#1                    12.25      0.03     16.50   14.3539 BVILLE 14 10YRGAGE   C7-A                
  C8-A#1                    17.02      0.02     24.20   13.3457 BVILLE 14 10YRGAGE   C8-A                
  C9-A#1                    23.76      0.01     19.80   11.9143 BVILLE 14 10YRGAGE   C9-A                
  NODE10#1                   8.04      0.02     26.30   13.0016 BVILLE 14 10YRGAGE   NODE10              
  NODE11#1                  11.70      0.03     21.80   10.5052 BVILLE 14 10YRGAGE   NODE11              
  NODE12#1                   1.01      0.00     38.30    8.4296 BVILLE 14 10YRGAGE   NODE12              
  NODE14#1                   5.97      0.02     15.10    7.5643 BVILLE 14 10YRGAGE   NODE14              
  NODE16#1                   0.96      0.01     23.20   11.3639 BVILLE 14 10YRGAGE   NODE16              
  NODE17#1                   0.44      0.00      0.00    9.3152 BVILLE 14 10YRGAGE   NODE17              
  NODE1916#1                 4.10      0.01     66.00    4.0672 BVILLE 14 10YRGAGE   NODE1916            
  NODE1919#1                 7.78      0.03     62.60    5.8879 BVILLE 14 10YRGAGE   NODE1919            
  NODE1923#1                 0.80      0.00     61.00    5.3024 BVILLE 14 10YRGAGE   NODE1923            
  NODE1932#1                 1.76      0.01     51.60   11.1848 BVILLE 14 10YRGAGE   NODE1932            
  NODE1940#1                 0.99      0.00     75.60    4.2640 BVILLE 14 10YRGAGE   NODE1940            
  NODE1945#1                 1.68      0.01     84.00    3.8694 BVILLE 14 10YRGAGE   NODE1945            
  NODE1947#1                 0.86      0.01     77.00    7.2580 BVILLE 14 10YRGAGE   NODE1947            
  NODE1961#1                 0.95      0.01     36.30    9.2486 BVILLE 14 10YRGAGE   NODE1961            
  NODE1962#1                 1.36      0.01     41.30    9.7587 BVILLE 14 10YRGAGE   NODE1962            
  NODE1963#1                 1.74      0.01     23.10   16.7008 BVILLE 14 10YRGAGE   NODE1963            
  NODE1964#1                 3.98      0.01     39.30   15.4711 BVILLE 14 10YRGAGE   NODE1964            
  NODE1972#1                11.99      0.03     23.90   11.1277 BVILLE 14 10YRGAGE   NODE1972            
  NODE1982#1                 6.01      0.02     51.60   12.2177 BVILLE 14 10YRGAGE   NODE1982            
  NODE1989#1                 3.15      0.01     22.00   12.5621 BVILLE 14 10YRGAGE   NODE1989            
  NODE1992#1                 0.35      0.00     52.70   21.1232 BVILLE 14 10YRGAGE   NODE1992            
  NODE1999#1                 1.56      0.01     19.90   12.6746 BVILLE 14 10YRGAGE   NODE1999            
  NODE20#1                   3.06      0.01     18.80    9.5353 BVILLE 14 10YRGAGE   NODE20              
  NODE2003#1                 1.06      0.00     81.50    5.0423 BVILLE 14 10YRGAGE   NODE2003            
  NODE21#1                   1.51      0.01     36.20    8.5690 BVILLE 14 10YRGAGE   NODE21              
  NODE22#1                   2.52      0.01     32.30   13.4067 BVILLE 14 10YRGAGE   NODE22              
  NODE23#1                   1.60      0.01     34.50    9.0722 BVILLE 14 10YRGAGE   NODE23              
  NODE4#1                    0.38      0.00     75.40    2.9520 BVILLE 14 10YRGAGE   NODE4               
  NODE7#1                    1.49      0.01     98.20    3.0832 BVILLE 14 10YRGAGE   NODE7               
  NODE8#1                    0.42      0.01     92.20    3.6736 BVILLE 14 10YRGAGE   NODE8               
  
  
  ************
  Node Summary
  ************
                                           Invert      Max.    Ponded    External
  Name                 Type                 Elev.     Depth      Area    Inflow  
  -------------------------------------------------------------------------------
  1005                 JUNCTION            924.05      4.32       0.0
  1014                 JUNCTION            925.54      5.66       0.0
  10409                JUNCTION            908.92      5.75       0.0
  10414                JUNCTION            892.73      7.07       0.0
  105                  JUNCTION            974.00      7.85       0.0
  10726                JUNCTION            749.00     17.61       0.0
  10731                JUNCTION            821.00      5.94       0.0
  10732                JUNCTION            791.30     36.41       0.0
  10734                JUNCTION            834.14      8.01       0.0
  10735                JUNCTION            827.15     11.62       0.0
  10737                JUNCTION            832.93      7.24       0.0
  10746                JUNCTION            824.77     12.44       0.0
  10750                JUNCTION            907.30      5.62       0.0
  10751                JUNCTION            907.51     10.05       0.0
  10754                JUNCTION            912.77      6.13       0.0
  10755                JUNCTION            913.48      4.82       0.0
  10756                JUNCTION            913.80      5.48       0.0
  1097                 JUNCTION            912.60      2.72       0.0
  1106                 JUNCTION            910.00      8.17       0.0
  1107                 JUNCTION            909.40      7.24       0.0
  111                  JUNCTION            963.30      6.89       0.0
  1111                 JUNCTION            915.32      6.17       0.0
  1112                 JUNCTION            913.77      5.61       0.0
  1113                 JUNCTION            908.19      6.06       0.0
  1114                 JUNCTION            888.77     21.98       0.0
  1115                 JUNCTION            904.04      5.91       0.0
  11162                JUNCTION            956.30     17.25       0.0
  11167                JUNCTION           1008.36      6.70       0.0
  11168                JUNCTION            999.13      7.14       0.0
  11170                JUNCTION            989.98      8.36       0.0
  11171                JUNCTION            977.44      7.40       0.0
  1119                 JUNCTION            890.84      4.74       0.0
  1120                 JUNCTION              0.00    887.07       0.0
  1122                 JUNCTION            883.63      4.00       0.0
  11227                JUNCTION            903.25      4.25       0.0
  11228                JUNCTION            902.65     11.15       0.0
[...]
  6293                    1.00   0.04  0.01  0.00  0.95  0.00  0.00  0.00  0.00  0.00
  6294                    1.00   0.04  0.00  0.00  0.96  0.00  0.00  0.00  0.94  0.00
  6312                    1.00   0.04  0.00  0.00  0.96  0.00  0.00  0.00  0.00  0.00
  6959                    1.00   0.04  0.74  0.00  0.11  0.11  0.00  0.00  0.22  0.00
  6960                    1.00   1.00  0.00  0.00  0.00  0.00  0.00  0.00  0.00  0.00
  6965                    1.00   1.00  0.00  0.00  0.00  0.00  0.00  0.00  0.00  0.00
  6966                    1.00   1.00  0.00  0.00  0.00  0.00  0.00  0.00  0.00  0.00
  6967                    1.00   1.00  0.00  0.00  0.00  0.00  0.00  0.00  0.00  0.00
  6968                    1.00   0.78  0.00  0.00  0.02  0.20  0.00  0.00  0.00  0.00
  6969                    1.00   0.78  0.00  0.00  0.03  0.20  0.00  0.00  0.00  0.00
  6970                    1.00   0.77  0.00  0.00  0.04  0.19  0.00  0.00  0.00  0.00
  6973                    1.00   0.04  0.96  0.00  0.00  0.00  0.00  0.00  0.00  0.00
  6974                    1.00   1.00  0.00  0.00  0.00  0.00  0.00  0.00  0.00  0.00
  6983                    1.00   0.04  0.00  0.00  0.96  0.00  0.00  0.00  0.95  0.00
  7573                    1.00   0.03  0.00  0.00  0.74  0.00  0.00  0.23  0.02  0.00
  7574                    1.00   0.04  0.00  0.00  0.19  0.77  0.00  0.00  0.17  0.00
  7575                    1.00   0.04  0.02  0.00  0.95  0.00  0.00  0.00  0.95  0.00
  7576                    1.00   0.04  0.00  0.00  0.74  0.00  0.00  0.22  0.00  0.00
  7577                    1.00   0.04  0.36  0.00  0.60  0.00  0.00  0.00  0.60  0.00
  7581                    1.00   0.04  0.00  0.00  0.00  0.00  0.00  0.96  0.00  0.00
  7606                    1.00   0.04  0.00  0.00  0.96  0.00  0.00  0.00  0.40  0.00
  7608                    1.00   0.06  0.00  0.00  0.94  0.00  0.00  0.00  0.77  0.00
  7609                    1.00   0.04  0.00  0.00  0.96  0.00  0.00  0.00  0.96  0.00
  7610                    1.00   0.04  0.00  0.00  0.06  0.90  0.00  0.00  0.00  0.00
  7622                    1.00   0.03  0.00  0.00  0.97  0.00  0.00  0.00  0.00  0.00
  7623                    1.00   0.03  0.06  0.00  0.90  0.00  0.00  0.00  0.90  0.00
  7624                    1.00   0.03  0.00  0.00  0.00  0.00  0.00  0.97  0.00  0.00
  7634                    1.00   0.04  0.00  0.00  0.96  0.00  0.00  0.00  0.00  0.00
  7640                    1.00   0.04  0.00  0.00  0.00  0.00  0.00  0.96  0.00  0.00
  7641                    1.00   0.04  0.00  0.00  0.01  0.95  0.00  0.00  0.95  0.00
  7644                    1.00   0.04  0.00  0.00  0.09  0.87  0.00  0.00  0.17  0.00
  7645                    1.00   0.04  0.00  0.00  0.00  0.00  0.00  0.96  0.00  0.00
  7648                    1.00   0.04  0.01  0.00  0.96  0.00  0.00  0.00  0.21  0.00
  7671                    1.00   0.04  0.02  0.00  0.95  0.00  0.00  0.00  0.95  0.00
  7672                    1.00   0.22  0.00  0.00  0.08  0.69  0.00  0.00  0.00  0.00
  7673                    1.00   0.04  0.19  0.00  0.11  0.66  0.00  0.00  0.39  0.00
  7674                    1.00   0.04  0.00  0.00  0.00  0.00  0.00  0.96  0.00  0.00
  7675                    1.00   0.04  0.00  0.00  0.96  0.00  0.00  0.00  0.00  0.00
  7682                    1.00   0.04  0.00  0.00  0.77  0.20  0.00  0.00  0.95  0.00
  7683                    1.00   0.04  0.00  0.00  0.01  0.95  0.00  0.00  0.96  0.00
  7684                    1.00   0.04  0.00  0.00  0.96  0.00  0.00  0.00  0.14  0.00
  7692                    1.00   0.05  0.00  0.00  0.00  0.00  0.00  0.95  0.00  0.00
  7695                    1.00   0.05  0.00  0.00  0.95  0.00  0.00  0.00  0.24  0.00
  7704                    1.00   0.04  0.00  0.00  0.00  0.00  0.00  0.96  0.00  0.00
  7713                    1.00   0.04  0.00  0.00  0.00  0.00  0.00  0.96  0.00  0.00
  7722                    1.00   0.04  0.00  0.00  0.00  0.00  0.00  0.96  0.00  0.00
  7723                    1.00   0.04  0.00  0.00  0.20  0.76  0.00  0.00  0.25  0.00
  7729                    1.00   0.04  0.00  0.00  0.96  0.00  0.00  0.00  0.24  0.00
  7730                    1.00   0.04  0.00  0.00  0.91  0.05  0.00  0.00  0.34  0.00
  7731                    1.00   0.04  0.00  0.00  0.80  0.16  0.00  0.00  0.93  0.00
  7732                    1.00   0.04  0.00  0.00  0.20  0.76  0.00  0.00  0.19  0.00
  7733                    1.00   0.04  0.00  0.00  0.21  0.75  0.00  0.00  0.83  0.00
  7746                    1.00   0.04  0.00  0.00  0.96  0.00  0.00  0.00  0.46  0.00
  7748                    1.00   0.04  0.00  0.00  0.71  0.01  0.00  0.24  0.23  0.00
  7749                    1.00   0.04  0.00  0.00  0.00  0.00  0.00  0.96  0.00  0.00
  7754                    1.00   0.05  0.00  0.00  0.00  0.00  0.00  0.95  0.00  0.00
  7758                    1.00   0.04  0.00  0.00  0.00  0.00  0.00  0.96  0.00  0.00
  7759                    1.00   0.04  0.00  0.00  0.00  0.00  0.00  0.96  0.00  0.00
  7760                    1.00   0.04  0.00  0.00  0.21  0.75  0.00  0.00  0.95  0.00
  7761                    1.00   0.04  0.00  0.00  0.00  0.00  0.00  0.96  0.00  0.00
  7762                    1.00   0.04  0.00  0.00  0.96  0.00  0.00  0.00  0.20  0.00
  7777                    1.00   0.05  0.00  0.00  0.00  0.00  0.00  0.95  0.00  0.00
  7778                    1.00   0.05  0.00  0.00  0.00  0.00  0.00  0.95  0.00  0.00
  7787                    2.86   1.00  0.00  0.00  0.00  0.00  0.00  0.00  0.00  0.00
  7790                    1.00   0.04  0.00  0.00  0.20  0.76  0.00  0.00  0.62  0.00
  7793                    1.00   0.04  0.00  0.00  0.00  0.00  0.00  0.96  0.00  0.00
  7798                    1.00   0.04  0.01  0.00  0.95  0.00  0.00  0.00  0.15  0.00
  7800                    1.00   0.04  0.00  0.00  0.96  0.00  0.00  0.00  0.11  0.00
  7801                    1.00   0.05  0.00  0.00  0.00  0.00  0.00  0.95  0.00  0.00
  7808                    1.00   0.04  0.00  0.00  0.00  0.00  0.00  0.96  0.00  0.00
  7845                    1.00   0.04  0.01  0.00  0.95  0.00  0.00  0.00  0.95  0.00
  7852                    1.00   0.05  0.00  0.00  0.00  0.00  0.00  0.95  0.00  0.00
  7857                    1.00   0.04  0.00  0.00  0.00  0.00  0.00  0.96  0.00  0.00
  7858                    1.00   0.04  0.18  0.00  0.70  0.08  0.00  0.00  0.12  0.00
  7863                    1.00   0.04  0.00  0.00  0.96  0.00  0.00  0.00  0.00  0.00
  7864                    1.00   0.04  0.96  0.00  0.00  0.00  0.00  0.00  0.00  0.00
  7865                    5.45   1.00  0.00  0.00  0.00  0.00  0.00  0.00  0.00  0.00
  7866                    1.00   0.04  0.00  0.00  0.00  0.00  0.00  0.96  0.00  0.00
  7889                    1.00   0.04  0.00  0.00  0.13  0.83  0.00  0.00  0.02  0.00
  8546                    1.00   0.04  0.00  0.00  0.00  0.00  0.00  0.96  0.00  0.00
  8551                    1.00   0.03  0.00  0.00  0.00  0.00  0.00  0.97  0.00  0.00
  8552                    1.00   0.03  0.00  0.00  0.16  0.80  0.00  0.00  0.00  0.00
  8556                    1.00   0.05  0.00  0.00  0.00  0.00  0.00  0.95  0.00  0.00
  8560                    1.00   0.03  0.29  0.00  0.14  0.54  0.00  0.00  0.67  0.00
  8561                    1.00   0.33  0.00  0.00  0.00  0.67  0.00  0.00  0.00  0.00
  8562                    1.00   0.32  0.00  0.00  0.00  0.67  0.00  0.00  0.00  0.00
  8563                    1.00   0.04  0.00  0.00  0.00  0.00  0.00  0.96  0.00  0.00
  8564                    1.00   0.04  0.00  0.00  0.96  0.00  0.00  0.00  0.96  0.00
  8568                    1.00   0.04  0.00  0.00  0.00  0.00  0.00  0.96  0.00  0.00
  8573                    1.00   0.04  0.00  0.00  0.96  0.00  0.00  0.00  0.00  0.00
  8583                    1.00   0.04  0.00  0.00  0.13  0.83  0.00  0.00  0.96  0.00
  8584                    1.00   0.04  0.00  0.00  0.04  0.92  0.00  0.00  0.20  0.00
  8585                    1.00   0.04  0.00  0.00  0.00  0.00  0.00  0.96  0.00  0.00
  8586                    1.00   0.03  0.00  0.00  0.01  0.95  0.00  0.00  0.20  0.00
  8606                    1.00   0.04  0.00  0.00  0.00  0.00  0.00  0.96  0.00  0.00
  8626                    1.00   0.03  0.00  0.00  0.75  0.22  0.00  0.00  0.72  0.00
  8633                    1.00   0.04  0.03  0.00  0.21  0.72  0.00  0.00  0.22  0.00
  8634                    1.00   0.05  0.00  0.00  0.16  0.80  0.00  0.00  0.01  0.00
  8636                    1.00   0.05  0.00  0.00  0.20  0.75  0.00  0.00  0.23  0.00
  8646                    1.00   0.04  0.00  0.00  0.00  0.00  0.00  0.96  0.00  0.00
  8647                    1.00   0.39  0.00  0.00  0.00  0.00  0.00  0.61  0.00  0.00
  8652                    1.00   0.04  0.00  0.00  0.00  0.00  0.00  0.96  0.00  0.00
  8653                    1.00   0.48  0.00  0.00  0.51  0.00  0.00  0.01  0.51  0.00
  8659                    1.00   0.04  0.00  0.00  0.20  0.76  0.00  0.00  0.95  0.00
  8660                    1.48   0.04  0.01  0.00  0.14  0.81  0.00  0.00  0.20  0.00
  8664                    1.00   0.03  0.01  0.00  0.12  0.84  0.00  0.00  0.95  0.00
  8665                    1.00   0.04  0.00  0.00  0.02  0.93  0.00  0.00  0.01  0.00
  8666                    1.00   0.03  0.00  0.00  0.02  0.94  0.00  0.00  0.95  0.00
  8668                    1.00   0.04  0.00  0.00  0.00  0.00  0.00  0.96  0.00  0.00
  8669                    1.85   0.18  0.00  0.00  0.00  0.00  0.00  0.82  0.00  0.00
  8684                    1.00   0.04  0.00  0.00  0.00  0.00  0.00  0.96  0.00  0.00
  8685                    1.00   0.03  0.00  0.00  0.14  0.83  0.00  0.00  0.96  0.00
  8686                    1.00   0.04  0.01  0.00  0.00  0.95  0.00  0.00  0.08  0.00
  8687                    1.00   0.04  0.00  0.00  0.01  0.95  0.00  0.00  0.00  0.00
  8696                    1.00   0.08  0.00  0.00  0.00  0.00  0.00  0.92  0.00  0.00
  8699                    1.00   0.04  0.00  0.00  0.00  0.00  0.00  0.96  0.00  0.00
  8719                    1.00   0.03  0.00  0.00  0.97  0.00  0.00  0.00  0.96  0.00
  8783                    1.00   0.03  0.00  0.00  0.96  0.00  0.00  0.00  0.15  0.00
  8832                    1.00   0.04  0.00  0.00  0.96  0.00  0.00  0.00  0.95  0.00
  8942                    1.00   0.04  0.00  0.00  0.22  0.74  0.00  0.00  0.07  0.00
  8943                    1.00   0.04  0.00  0.00  0.96  0.00  0.00  0.00  0.00  0.00
  8966                    1.00   0.04  0.00  0.00  0.96  0.00  0.00  0.00  0.00  0.00
  8967                    1.00   0.04  0.00  0.00  0.96  0.00  0.00  0.00  0.21  0.00
  8990                    1.00   0.04  0.00  0.00  0.95  0.01  0.00  0.00  0.96  0.00
  9003                    1.00   0.06  0.00  0.00  0.00  0.40  0.00  0.55  0.00  0.00
  9004                    1.00   0.06  0.00  0.00  0.00  0.00  0.00  0.94  0.00  0.00
  9005                    1.00   0.04  0.00  0.00  0.03  0.93  0.00  0.00  0.01  0.00
  9032                    1.00   1.00  0.00  0.00  0.00  0.00  0.00  0.00  0.00  0.00
  9033                    1.00   0.04  0.96  0.00  0.00  0.00  0.00  0.00  0.00  0.00
  9046                    1.00   0.04  0.00  0.00  0.00  0.00  0.00  0.96  0.00  0.00
  9058                    1.00   0.04  0.01  0.00  0.16  0.80  0.00  0.00  0.18  0.00
  9111                    1.00   0.04  0.00  0.00  0.89  0.00  0.00  0.07  0.89  0.00
  9112                    1.00   0.04  0.00  0.00  0.96  0.00  0.00  0.00  0.06  0.00
  9124                    1.00   0.04  0.13  0.00  0.00  0.00  0.84  0.00  0.00  0.00
  9132                    1.00   0.04  0.00  0.00  0.96  0.00  0.00  0.00  0.95  0.00
  9138                    1.00   0.03  0.00  0.00  0.61  0.36  0.00  0.00  0.15  0.00
  9142                    1.00   0.04  0.00  0.00  0.00  0.00  0.00  0.96  0.00  0.00
  9145                    1.00   0.04  0.00  0.00  0.96  0.00  0.00  0.00  0.24  0.00
  9318                    1.00   0.04  0.00  0.00  0.96  0.00  0.00  0.00  0.22  0.00
  9319                    1.00   0.04  0.00  0.00  0.96  0.00  0.00  0.00  0.04  0.00
  9320                    1.00   0.04  0.00  0.00  0.00  0.00  0.00  0.96  0.00  0.00
  9530                    1.00   0.04  0.96  0.00  0.00  0.00  0.00  0.00  0.00  0.00
  9531                    1.00   0.04  0.00  0.00  0.96  0.00  0.00  0.00  0.01  0.00
  9532                    1.00   0.06  0.00  0.00  0.94  0.00  0.00  0.00  0.94  0.00
  9533                    1.00   0.04  0.00  0.00  0.96  0.00  0.00  0.00  0.18  0.00
  9534                    1.00   0.05  0.95  0.00  0.00  0.00  0.00  0.00  0.00  0.00
  9535                    1.00   0.06  0.00  0.00  0.94  0.00  0.00  0.00  0.00  0.00
  9536                    1.00   0.04  0.02  0.00  0.21  0.73  0.00  0.00  0.20  0.00
  9541                    1.00   0.04  0.00  0.00  0.96  0.00  0.00  0.00  0.54  0.00
  9542                    1.00   0.06  0.00  0.00  0.94  0.00  0.00  0.00  0.94  0.00
  9543                    1.00   0.04  0.00  0.00  0.96  0.00  0.00  0.00  0.02  0.00
  9544                    1.00   0.05  0.00  0.00  0.00  0.00  0.00  0.95  0.00  0.00
  9545                    1.00   0.04  0.00  0.00  0.96  0.00  0.00  0.00  0.95  0.00
  9546                    1.00   0.06  0.19  0.00  0.72  0.03  0.00  0.00  0.75  0.00
  9553                    1.00   0.04  0.00  0.00  0.96  0.00  0.00  0.00  0.94  0.00
  9555                    1.00   0.04  0.00  0.00  0.96  0.00  0.00  0.00  0.00  0.00
  9556                    1.00   0.04  0.00  0.00  0.96  0.00  0.00  0.00  0.95  0.00
  9641                    1.00   0.04  0.01  0.00  0.11  0.84  0.00  0.00  0.00  0.00
  9643                    1.00   0.04  0.00  0.00  0.00  0.00  0.00  0.96  0.00  0.00
  9645                    1.00   0.06  0.00  0.00  0.00  0.00  0.00  0.94  0.00  0.00
  9647                    1.00   0.04  0.00  0.00  0.00  0.00  0.00  0.96  0.00  0.00
  9648                    1.00   0.04  0.00  0.00  0.00  0.00  0.00  0.96  0.00  0.00
  9653                    1.00   0.05  0.00  0.00  0.00  0.00  0.00  0.95  0.00  0.00
  9654                    1.00   0.05  0.00  0.00  0.00  0.00  0.00  0.95  0.00  0.00
  9655                    1.00   0.05  0.00  0.00  0.00  0.00  0.00  0.95  0.00  0.00
  9656                    1.00   0.04  0.00  0.00  0.17  0.80  0.00  0.00  0.95  0.00
  9657                    1.00   0.04  0.00  0.00  0.17  0.79  0.00  0.00  0.19  0.00
  9658                    1.00   0.05  0.00  0.00  0.00  0.00  0.00  0.95  0.00  0.00
  9761                    1.00   0.04  0.01  0.00  0.96  0.00  0.00  0.00  0.96  0.00
  9762                    1.00   0.04  0.00  0.00  0.00  0.00  0.00  0.96  0.00  0.00
  9764                    1.00   0.03  0.00  0.00  0.00  0.00  0.00  0.97  0.00  0.00
  9777                    1.00   0.03  0.00  0.00  0.96  0.00  0.00  0.00  0.96  0.00
  9781                    1.00   0.04  0.00  0.00  0.26  0.30  0.00  0.39  0.19  0.00
  9793                    1.00   1.00  0.00  0.00  0.00  0.00  0.00  0.00  0.00  0.00
  9795                    1.00   0.04  0.01  0.00  0.96  0.00  0.00  0.00  0.95  0.00
  9800                    1.00   0.05  0.00  0.00  0.00  0.00  0.00  0.95  0.00  0.00
  9801                    1.00   0.04  0.00  0.00  0.00  0.00  0.00  0.96  0.00  0.00
  9804                    1.00   0.04  0.00  0.00  0.00  0.89  0.00  0.07  0.35  0.00
  9805                    1.00   0.04  0.00  0.00  0.17  0.79  0.00  0.00  0.00  0.00
  9806                    1.00   0.04  0.00  0.00  0.18  0.78  0.00  0.00  0.96  0.00
  9807                    1.00   0.04  0.00  0.00  0.88  0.08  0.00  0.00  0.00  0.00
  9827                    1.00   0.04  0.00  0.00  0.10  0.86  0.00  0.00  0.02  0.00
  9828                    1.00   0.04  0.00  0.00  0.19  0.77  0.00  0.00  0.93  0.00
  9829                    1.00   0.04  0.00  0.00  0.16  0.81  0.00  0.00  0.95  0.00
  9901                    1.00   0.04  0.00  0.00  0.00  0.00  0.00  0.96  0.00  0.00
  9914                    1.00   0.24  0.00  0.00  0.69  0.00  0.00  0.07  0.00  0.00
  9918                    1.00   0.05  0.00  0.00  0.95  0.00  0.00  0.00  0.93  0.00
  9919                    1.00   0.07  0.00  0.00  0.00  0.00  0.00  0.93  0.00  0.00
  9925                    1.00   0.03  0.01  0.00  0.08  0.88  0.00  0.00  0.00  0.00
  9926                    1.00   0.03  0.00  0.00  0.16  0.80  0.00  0.00  0.19  0.00
  9927                    1.00   0.04  0.01  0.00  0.11  0.84  0.00  0.00  0.00  0.00
  9928                    1.00   0.03  0.00  0.00  0.11  0.85  0.00  0.00  0.96  0.00
  9954                    1.00   1.00  0.00  0.00  0.00  0.00  0.00  0.00  0.00  0.00
  9955                    1.00   1.00  0.00  0.00  0.00  0.00  0.00  0.00  0.00  0.00
  9956                    1.00   0.04  0.01  0.00  0.95  0.00  0.00  0.00  0.96  0.00
  9957                    1.00   0.05  0.00  0.00  0.00  0.00  0.00  0.95  0.00  0.00
  9998                    1.00   0.04  0.00  0.00  0.00  0.00  0.00  0.96  0.00  0.00
  9999                    1.00   0.04  0.00  0.00  0.00  0.00  0.00  0.96  0.00  0.00
  DITCH1                  1.00   0.05  0.00  0.00  0.00  0.00  0.00  0.95  0.00  0.00
  DITCH2                  1.00   0.04  0.00  0.00  0.00  0.00  0.00  0.96  0.00  0.00
  LINK-01                 1.00   0.04  0.00  0.00  0.96  0.00  0.00  0.00  0.06  0.00
  LINK1019                1.00   0.05  0.00  0.00  0.17  0.77  0.00  0.00  0.22  0.00
  LINK1020                1.00   0.04  0.00  0.00  0.96  0.00  0.00  0.00  0.95  0.00
  LINK1136                1.00   0.04  0.00  0.00  0.00  0.00  0.00  0.96  0.00  0.00
  LINK1167                1.00   0.25  0.75  0.00  0.00  0.00  0.00  0.00  0.00  0.00
  LINK1168                2.46   1.00  0.00  0.00  0.00  0.00  0.00  0.00  0.00  0.00
  LINK1186                1.00   0.04  0.00  0.00  0.12  0.84  0.00  0.00  0.16  0.00
  LINK1400                1.00   0.04  0.00  0.00  0.00  0.00  0.00  0.96  0.00  0.00
  LINK1413                1.00   0.04  0.00  0.00  0.03  0.92  0.00  0.00  0.00  0.00
  
  
  *************************
  Conduit Surcharge Summary
  *************************
  
  ----------------------------------------------------------------------------
                                                           Hours        Hours 
                         --------- Hours Full --------   Above Full   Capacity
  Conduit                Both Ends  Upstream  Dnstream   Normal Flow   Limited
  ----------------------------------------------------------------------------
  10364                       0.01      0.01     36.93      0.01         0.01
  11058                       0.01      0.01     22.04      0.01         0.01
  11700                      30.31     30.31     30.31      0.01         0.01
  12143                       0.01      0.01     28.87      0.01         0.01
  13672                       0.01      0.01     34.15      0.01         0.01
  13686                       0.01      0.01     36.32      0.01         0.01
  1425.1.1                    0.01      0.01     34.49      0.01         0.01
  14710.1                     0.01      0.01     38.11      0.01         0.01
  15103.1                    35.67     35.67     35.69      0.01         0.01
  15181                       0.01      0.01     35.96      0.01         0.01
  2521.1                      0.01      0.01     23.23      0.01         0.01
  2706                        0.01      0.01     35.37      0.01         0.01
  7729                        0.01      0.01     31.08      0.01         0.01
  9111                        0.01      0.01     28.65      0.01         0.01
  9112                       28.64     28.64     32.29      0.01         0.01
  9795                        0.01      0.01     35.67      0.01         0.01
  LINK-01                    37.19     37.41     42.91     45.04        37.09
  

  Analysis begun on:  Fri Mar  6 14:30:28 2026
  Analysis ended on:  Fri Mar  6 14:31:42 2026
  Total elapsed time: 00:01:14