
  EPA STORM WATER MANAGEMENT MODEL - VERSION 5.2 (Build 5.2.4)
  ------------------------------------------------------------

  
  ****************
  Analysis Options
  ****************
  Flow Units ............... LPS
  Process Models:
    Rainfall/Runoff ........ YES
    RDII ................... NO
    Snowmelt ............... NO
    Groundwater ............ NO
    Flow Routing ........... YES
    Ponding Allowed ........ NO
    Water Quality .......... NO
  Infiltration Method ...... HORTON
  Flow Routing Method ...... DYNWAVE
  Surcharge Method ......... EXTRAN
  Starting Date ............ 01/01/1985 00:00:00
  Ending Date .............. 12/31/1994 23:00:00
  Antecedent Dry Days ...... 0.0
  Report Time Step ......... 01:00:00
  Wet Time Step ............ 00:30:00
  Dry Time Step ............ 01:00:00
  Routing Time Step ........ 30.00 sec
  Variable Time Step ....... YES
  Maximum Trials ........... 8
  Number of Threads ........ 1
  Head Tolerance ........... 0.001524 m
  
  
  *********************
  Control Actions Taken
  *********************
   01/01/1985: 00:00:00 Link 13 setting changed to   0.00 by Control MC1
   01/19/1985: 05:35:31 Link 13 setting changed to   1.00 by Control MC1
   01/19/1985: 05:36:01 Link 4 setting changed to   0.00 by Control MC3
   01/19/1985: 08:40:31 Link 13 setting changed to   0.00 by Control MC1
   01/19/1985: 08:41:01 Link 4 setting changed to   1.00 by Control MC3
   01/19/1985: 20:38:31 Link 13 setting changed to   1.00 by Control MC1
   01/19/1985: 20:39:01 Link 4 setting changed to   0.00 by Control MC3
   01/19/1985: 23:20:31 Link 13 setting changed to   0.00 by Control MC1
   01/19/1985: 23:21:01 Link 4 setting changed to   1.00 by Control MC3
   01/20/1985: 18:21:31 Link 13 setting changed to   1.00 by Control MC1
   01/20/1985: 18:22:01 Link 4 setting changed to   0.00 by Control MC3
   01/20/1985: 22:15:01 Link 2 setting changed to   0.00 by Control Emergency
   01/20/1985: 23:49:31 Link 2 setting changed to   1.00 by Control NonEmergency
   01/21/1985: 04:22:31 Link 13 setting changed to   0.00 by Control MC1
   01/21/1985: 04:23:01 Link 4 setting changed to   1.00 by Control MC3
   01/21/1985: 16:47:31 Link 13 setting changed to   1.00 by Control MC1
   01/21/1985: 16:48:01 Link 4 setting changed to   0.00 by Control MC3
   01/21/1985: 17:55:31 Link 13 setting changed to   0.00 by Control MC1
   01/21/1985: 17:56:01 Link 4 setting changed to   1.00 by Control MC3
   01/21/1985: 18:05:31 Link 13 setting changed to   1.00 by Control MC1
   01/21/1985: 18:06:01 Link 4 setting changed to   0.00 by Control MC3
   01/21/1985: 21:23:31 Link 13 setting changed to   0.00 by Control MC1
   01/21/1985: 21:24:01 Link 4 setting changed to   1.00 by Control MC3
   02/14/1985: 00:23:01 Link 13 setting changed to   1.00 by Control MC1
   02/14/1985: 00:23:31 Link 4 setting changed to   0.00 by Control MC3
   02/14/1985: 22:34:31 Link 13 setting changed to   0.00 by Control MC1
   02/14/1985: 22:35:01 Link 4 setting changed to   1.00 by Control MC3
   02/14/1985: 23:13:31 Link 13 setting changed to   1.00 by Control MC1
   02/14/1985: 23:14:01 Link 4 setting changed to   0.00 by Control MC3
   02/15/1985: 00:56:01 Link 13 setting changed to   0.00 by Control MC1
   02/15/1985: 00:56:31 Link 4 setting changed to   1.00 by Control MC3
   03/21/1985: 08:29:01 Link 13 setting changed to   1.00 by Control MC1
   03/21/1985: 08:29:31 Link 4 setting changed to   0.00 by Control MC3
   03/21/1985: 11:16:01 Link 13 setting changed to   0.00 by Control MC1
   03/21/1985: 11:16:31 Link 4 setting changed to   1.00 by Control MC3
   03/22/1985: 06:08:01 Link 13 setting changed to   1.00 by Control MC1
   03/22/1985: 06:08:31 Link 4 setting changed to   0.00 by Control MC3
   03/22/1985: 11:41:01 Link 13 setting changed to   0.00 by Control MC1
   03/22/1985: 11:41:31 Link 4 setting changed to   1.00 by Control MC3
   03/22/1985: 12:11:01 Link 13 setting changed to   1.00 by Control MC1
   03/22/1985: 12:11:31 Link 4 setting changed to   0.00 by Control MC3
   03/22/1985: 16:10:01 Link 13 setting changed to   0.00 by Control MC1
   03/22/1985: 16:10:31 Link 4 setting changed to   1.00 by Control MC3
   03/22/1985: 17:12:01 Link 13 setting changed to   1.00 by Control MC1
   03/22/1985: 17:12:31 Link 4 setting changed to   0.00 by Control MC3
   03/22/1985: 20:36:01 Link 13 setting changed to   0.00 by Control MC1
   03/22/1985: 20:36:31 Link 4 setting changed to   1.00 by Control MC3
   03/25/1985: 09:57:31 Link 13 setting changed to   1.00 by Control MC1
   03/25/1985: 09:58:01 Link 4 setting changed to   0.00 by Control MC3
   03/25/1985: 10:40:31 Link 13 setting changed to   0.00 by Control MC1
   03/25/1985: 10:41:01 Link 4 setting changed to   1.00 by Control MC3
   03/26/1985: 01:18:01 Link 13 setting changed to   1.00 by Control MC1
   03/26/1985: 01:18:31 Link 4 setting changed to   0.00 by Control MC3
   03/27/1985: 03:30:01 Link 13 setting changed to   0.00 by Control MC1
   03/27/1985: 03:30:31 Link 4 setting changed to   1.00 by Control MC3
   04/12/1985: 04:25:01 Link 13 setting changed to   1.00 by Control MC1
   04/12/1985: 04:25:31 Link 4 setting changed to   0.00 by Control MC3
   04/12/1985: 07:21:01 Link 13 setting changed to   0.00 by Control MC1
   04/12/1985: 07:21:31 Link 4 setting changed to   1.00 by Control MC3
   04/15/1985: 16:37:31 Link 13 setting changed to   1.00 by Control MC1
   04/15/1985: 16:38:01 Link 4 setting changed to   0.00 by Control MC3
   04/15/1985: 18:38:31 Link 13 setting changed to   0.00 by Control MC1
   04/15/1985: 18:39:01 Link 4 setting changed to   1.00 by Control MC3
   04/16/1985: 20:36:31 Link 13 setting changed to   1.00 by Control MC1
   04/16/1985: 20:37:01 Link 4 setting changed to   0.00 by Control MC3
   04/17/1985: 00:27:01 Link 13 setting changed to   0.00 by Control MC1
   04/17/1985: 00:27:31 Link 4 setting changed to   1.00 by Control MC3
   04/17/1985: 04:27:01 Link 13 setting changed to   1.00 by Control MC1
   04/17/1985: 04:27:31 Link 4 setting changed to   0.00 by Control MC3
   04/17/1985: 09:28:31 Link 13 setting changed to   0.00 by Control MC1
   04/17/1985: 09:29:01 Link 4 setting changed to   1.00 by Control MC3
   04/18/1985: 08:21:31 Link 13 setting changed to   1.00 by Control MC1
   04/18/1985: 08:22:01 Link 4 setting changed to   0.00 by Control MC3
   04/18/1985: 15:15:01 Link 13 setting changed to   0.00 by Control MC1
   04/18/1985: 15:15:31 Link 4 setting changed to   1.00 by Control MC3
   04/18/1985: 16:25:31 Link 13 setting changed to   1.00 by Control MC1
   04/18/1985: 16:26:01 Link 4 setting changed to   0.00 by Control MC3
   04/18/1985: 18:42:01 Link 13 setting changed to   0.00 by Control MC1
   04/18/1985: 18:42:31 Link 4 setting changed to   1.00 by Control MC3
   04/19/1985: 04:19:01 Link 13 setting changed to   1.00 by Control MC1
   04/19/1985: 04:19:31 Link 4 setting changed to   0.00 by Control MC3
   04/19/1985: 10:01:31 Link 13 setting changed to   0.00 by Control MC1
   04/19/1985: 10:02:01 Link 4 setting changed to   1.00 by Control MC3
   04/20/1985: 13:56:01 Link 13 setting changed to   1.00 by Control MC1
   04/20/1985: 13:56:31 Link 4 setting changed to   0.00 by Control MC3
   04/20/1985: 14:36:31 Link 13 setting changed to   0.00 by Control MC1
   04/20/1985: 14:37:01 Link 4 setting changed to   1.00 by Control MC3
   04/25/1985: 08:27:01 Link 13 setting changed to   1.00 by Control MC1
   04/25/1985: 08:27:31 Link 4 setting changed to   0.00 by Control MC3
   04/25/1985: 10:05:01 Link 13 setting changed to   0.00 by Control MC1
   04/25/1985: 10:05:31 Link 4 setting changed to   1.00 by Control MC3
   04/26/1985: 06:09:01 Link 13 setting changed to   1.00 by Control MC1
   04/26/1985: 06:09:31 Link 4 setting changed to   0.00 by Control MC3
   04/26/1985: 09:53:31 Link 13 setting changed to   0.00 by Control MC1
   04/26/1985: 09:54:01 Link 4 setting changed to   1.00 by Control MC3
   04/27/1985: 07:37:01 Link 13 setting changed to   1.00 by Control MC1
   04/27/1985: 07:37:31 Link 4 setting changed to   0.00 by Control MC3
   04/27/1985: 09:42:01 Link 13 setting changed to   0.00 by Control MC1
   04/27/1985: 09:42:31 Link 4 setting changed to   1.00 by Control MC3
   04/27/1985: 10:07:31 Link 13 setting changed to   1.00 by Control MC1
   04/27/1985: 10:08:01 Link 4 setting changed to   0.00 by Control MC3
   04/27/1985: 15:31:31 Link 13 setting changed to   0.00 by Control MC1
   04/27/1985: 15:32:01 Link 4 setting changed to   1.00 by Control MC3
   04/28/1985: 02:52:01 Link 13 setting changed to   1.00 by Control MC1
   04/28/1985: 02:52:31 Link 4 setting changed to   0.00 by Control MC3
   04/28/1985: 05:37:01 Link 13 setting changed to   0.00 by Control MC1
   04/28/1985: 05:37:31 Link 4 setting changed to   1.00 by Control MC3
   04/28/1985: 06:37:31 Link 13 setting changed to   1.00 by Control MC1
   04/28/1985: 06:38:01 Link 4 setting changed to   0.00 by Control MC3
   04/28/1985: 07:28:01 Link 13 setting changed to   0.00 by Control MC1
   04/28/1985: 07:28:31 Link 4 setting changed to   1.00 by Control MC3
   04/28/1985: 18:37:31 Link 13 setting changed to   1.00 by Control MC1
   04/28/1985: 18:38:01 Link 4 setting changed to   0.00 by Control MC3
   04/28/1985: 22:33:01 Link 13 setting changed to   0.00 by Control MC1
   04/28/1985: 22:33:31 Link 4 setting changed to   1.00 by Control MC3
   04/28/1985: 23:05:31 Link 13 setting changed to   1.00 by Control MC1
   04/28/1985: 23:06:01 Link 4 setting changed to   0.00 by Control MC3
   04/29/1985: 03:30:31 Link 13 setting changed to   0.00 by Control MC1
   04/29/1985: 03:31:01 Link 4 setting changed to   1.00 by Control MC3
   04/29/1985: 09:36:31 Link 13 setting changed to   1.00 by Control MC1
   04/29/1985: 09:37:01 Link 4 setting changed to   0.00 by Control MC3
   04/29/1985: 11:28:01 Link 13 setting changed to   0.00 by Control MC1
   04/29/1985: 11:28:31 Link 4 setting changed to   1.00 by Control MC3
   04/29/1985: 12:30:31 Link 13 setting changed to   1.00 by Control MC1
   04/29/1985: 12:31:01 Link 4 setting changed to   0.00 by Control MC3
   04/29/1985: 13:45:31 Link 13 setting changed to   0.00 by Control MC1
   04/29/1985: 13:46:01 Link 4 setting changed to   1.00 by Control MC3
   04/29/1985: 17:21:31 Link 13 setting changed to   1.00 by Control MC1
   04/29/1985: 17:22:01 Link 4 setting changed to   0.00 by Control MC3
   04/29/1985: 21:22:31 Link 13 setting changed to   0.00 by Control MC1
   04/29/1985: 21:23:01 Link 4 setting changed to   1.00 by Control MC3
   04/30/1985: 04:37:31 Link 13 setting changed to   1.00 by Control MC1
   04/30/1985: 04:38:01 Link 4 setting changed to   0.00 by Control MC3
   04/30/1985: 09:50:01 Link 13 setting changed to   0.00 by Control MC1
   04/30/1985: 09:50:31 Link 4 setting changed to   1.00 by Control MC3
   04/30/1985: 12:19:01 Link 13 setting changed to   1.00 by Control MC1
   04/30/1985: 12:19:31 Link 4 setting changed to   0.00 by Control MC3
   04/30/1985: 18:56:31 Link 13 setting changed to   0.00 by Control MC1
   04/30/1985: 18:57:01 Link 4 setting changed to   1.00 by Control MC3
   04/30/1985: 20:28:31 Link 13 setting changed to   1.00 by Control MC1
   04/30/1985: 20:29:01 Link 4 setting changed to   0.00 by Control MC3
   04/30/1985: 23:50:31 Link 13 setting changed to   0.00 by Control MC1
   04/30/1985: 23:51:01 Link 4 setting changed to   1.00 by Control MC3
   05/19/1985: 09:33:01 Link 13 setting changed to   1.00 by Control MC1
   05/19/1985: 09:33:31 Link 4 setting changed to   0.00 by Control MC3
   05/19/1985: 10:36:31 Link 13 setting changed to   0.00 by Control MC1
   05/19/1985: 10:37:01 Link 4 setting changed to   1.00 by Control MC3
   05/19/1985: 16:26:01 Link 13 setting changed to   1.00 by Control MC1
   05/19/1985: 16:26:31 Link 4 setting changed to   0.00 by Control MC3
   05/19/1985: 17:45:31 Link 13 setting changed to   0.00 by Control MC1
   05/19/1985: 17:46:01 Link 4 setting changed to   1.00 by Control MC3
   05/20/1985: 16:30:31 Link 13 setting changed to   1.00 by Control MC1
   05/20/1985: 16:31:01 Link 4 setting changed to   0.00 by Control MC3
   05/20/1985: 21:06:31 Link 13 setting changed to   0.00 by Control MC1
   05/20/1985: 21:07:01 Link 4 setting changed to   1.00 by Control MC3
   05/22/1985: 17:46:31 Link 13 setting changed to   1.00 by Control MC1
   05/22/1985: 17:47:01 Link 4 setting changed to   0.00 by Control MC3
   05/22/1985: 19:09:01 Link 13 setting changed to   0.00 by Control MC1
   05/22/1985: 19:09:31 Link 4 setting changed to   1.00 by Control MC3
   05/23/1985: 17:24:31 Link 13 setting changed to   1.00 by Control MC1
   05/23/1985: 17:25:01 Link 4 setting changed to   0.00 by Control MC3
   05/23/1985: 21:27:31 Link 13 setting changed to   0.00 by Control MC1
   05/23/1985: 21:28:01 Link 4 setting changed to   1.00 by Control MC3
   05/25/1985: 00:40:31 Link 13 setting changed to   1.00 by Control MC1
   05/25/1985: 00:41:01 Link 4 setting changed to   0.00 by Control MC3
   05/25/1985: 04:36:31 Link 13 setting changed to   0.00 by Control MC1
   05/25/1985: 04:37:01 Link 4 setting changed to   1.00 by Control MC3
   05/25/1985: 05:30:01 Link 13 setting changed to   1.00 by Control MC1
   05/25/1985: 05:30:31 Link 4 setting changed to   0.00 by Control MC3
   05/25/1985: 08:46:01 Link 13 setting changed to   0.00 by Control MC1
   05/25/1985: 08:46:31 Link 4 setting changed to   1.00 by Control MC3
   05/25/1985: 09:10:31 Link 13 setting changed to   1.00 by Control MC1
   05/25/1985: 09:11:01 Link 4 setting changed to   0.00 by Control MC3
   05/25/1985: 13:27:31 Link 13 setting changed to   0.00 by Control MC1
   05/25/1985: 13:28:01 Link 4 setting changed to   1.00 by Control MC3
   05/25/1985: 16:42:01 Link 13 setting changed to   1.00 by Control MC1
   05/25/1985: 16:42:31 Link 4 setting changed to   0.00 by Control MC3
   05/25/1985: 17:55:01 Link 13 setting changed to   0.00 by Control MC1
   05/25/1985: 17:55:31 Link 4 setting changed to   1.00 by Control MC3
   05/25/1985: 22:12:01 Link 13 setting changed to   1.00 by Control MC1
   05/25/1985: 22:12:31 Link 4 setting changed to   0.00 by Control MC3
   05/26/1985: 09:11:01 Link 13 setting changed to   0.00 by Control MC1
   05/26/1985: 09:11:31 Link 4 setting changed to   1.00 by Control MC3
   05/26/1985: 12:14:01 Link 13 setting changed to   1.00 by Control MC1
   05/26/1985: 12:14:31 Link 4 setting changed to   0.00 by Control MC3
   05/26/1985: 16:40:31 Link 13 setting changed to   0.00 by Control MC1
   05/26/1985: 16:41:01 Link 4 setting changed to   1.00 by Control MC3
   05/27/1985: 02:32:01 Link 13 setting changed to   1.00 by Control MC1
   05/27/1985: 02:32:31 Link 4 setting changed to   0.00 by Control MC3
   05/27/1985: 04:51:01 Link 13 setting changed to   0.00 by Control MC1
   05/27/1985: 04:51:31 Link 4 setting changed to   1.00 by Control MC3
   05/27/1985: 09:52:01 Link 13 setting changed to   1.00 by Control MC1
   05/27/1985: 09:52:31 Link 4 setting changed to   0.00 by Control MC3
   05/27/1985: 10:36:31 Link 13 setting changed to   0.00 by Control MC1
   05/27/1985: 10:37:01 Link 4 setting changed to   1.00 by Control MC3
   05/27/1985: 13:16:31 Link 13 setting changed to   1.00 by Control MC1
   05/27/1985: 13:17:01 Link 4 setting changed to   0.00 by Control MC3
   05/27/1985: 20:06:31 Link 13 setting changed to   0.00 by Control MC1
   05/27/1985: 20:07:01 Link 4 setting changed to   1.00 by Control MC3
   05/27/1985: 21:13:31 Link 13 setting changed to   1.00 by Control MC1
   05/27/1985: 21:14:01 Link 4 setting changed to   0.00 by Control MC3
   05/28/1985: 00:22:31 Link 13 setting changed to   0.00 by Control MC1
   05/28/1985: 00:23:01 Link 4 setting changed to   1.00 by Control MC3
   06/13/1985: 22:28:31 Link 13 setting changed to   1.00 by Control MC1
   06/13/1985: 22:29:01 Link 4 setting changed to   0.00 by Control MC3
   06/14/1985: 01:15:31 Link 13 setting changed to   0.00 by Control MC1
   06/14/1985: 01:16:01 Link 4 setting changed to   1.00 by Control MC3
   06/14/1985: 07:04:01 Link 13 setting changed to   1.00 by Control MC1
   06/14/1985: 07:04:31 Link 4 setting changed to   0.00 by Control MC3
   06/14/1985: 07:27:31 Link 2 setting changed to   0.00 by Control Emergency
   06/14/1985: 08:30:06 Link 2 setting changed to   1.00 by Control NonEmergency
   06/14/1985: 12:27:36 Link 13 setting changed to   0.00 by Control MC1
   06/14/1985: 12:28:06 Link 4 setting changed to   1.00 by Control MC3
   06/15/1985: 01:17:06 Link 13 setting changed to   1.00 by Control MC1
   06/15/1985: 01:17:36 Link 4 setting changed to   0.00 by Control MC3
   06/15/1985: 02:28:36 Link 2 setting changed to   0.00 by Control Emergency
   06/15/1985: 03:41:06 Link 2 setting changed to   1.00 by Control NonEmergency
   06/15/1985: 12:45:06 Link 13 setting changed to   0.00 by Control MC1
   06/15/1985: 12:45:36 Link 4 setting changed to   1.00 by Control MC3
   06/25/1985: 07:05:36 Link 13 setting changed to   1.00 by Control MC1
   06/25/1985: 07:06:06 Link 4 setting changed to   0.00 by Control MC3
   06/25/1985: 08:46:36 Link 13 setting changed to   0.00 by Control MC1
   06/25/1985: 08:47:06 Link 4 setting changed to   1.00 by Control MC3
   07/08/1985: 05:18:36 Link 13 setting changed to   1.00 by Control MC1
   07/08/1985: 05:19:06 Link 4 setting changed to   0.00 by Control MC3
   07/08/1985: 09:30:06 Link 13 setting changed to   0.00 by Control MC1
   07/08/1985: 09:30:36 Link 4 setting changed to   1.00 by Control MC3
   07/13/1985: 10:08:06 Link 13 setting changed to   1.00 by Control MC1
   07/13/1985: 10:09:06 Link 4 setting changed to   0.00 by Control MC3
   07/13/1985: 14:58:36 Link 13 setting changed to   0.00 by Control MC1
   07/13/1985: 14:59:06 Link 4 setting changed to   1.00 by Control MC3
   07/23/1985: 05:41:06 Link 13 setting changed to   1.00 by Control MC1
   07/23/1985: 05:41:36 Link 4 setting changed to   0.00 by Control MC3
   07/23/1985: 06:54:06 Link 13 setting changed to   0.00 by Control MC1
   07/23/1985: 06:54:36 Link 4 setting changed to   1.00 by Control MC3
   07/23/1985: 08:07:36 Link 13 setting changed to   1.00 by Control MC1
   07/23/1985: 08:08:06 Link 4 setting changed to   0.00 by Control MC3
   07/23/1985: 16:11:36 Link 13 setting changed to   0.00 by Control MC1
   07/23/1985: 16:12:06 Link 4 setting changed to   1.00 by Control MC3
   07/24/1985: 03:14:06 Link 13 setting changed to   1.00 by Control MC1
   07/24/1985: 03:14:36 Link 4 setting changed to   0.00 by Control MC3
   07/24/1985: 12:37:36 Link 13 setting changed to   0.00 by Control MC1
   07/24/1985: 12:38:06 Link 4 setting changed to   1.00 by Control MC3
   07/25/1985: 06:18:36 Link 13 setting changed to   1.00 by Control MC1
   07/25/1985: 06:19:06 Link 4 setting changed to   0.00 by Control MC3
   07/25/1985: 09:50:06 Link 13 setting changed to   0.00 by Control MC1
   07/25/1985: 09:50:36 Link 4 setting changed to   1.00 by Control MC3
   07/25/1985: 18:58:36 Link 13 setting changed to   1.00 by Control MC1
   07/25/1985: 18:59:06 Link 4 setting changed to   0.00 by Control MC3
   07/25/1985: 19:26:36 Link 13 setting changed to   0.00 by Control MC1
   07/25/1985: 19:27:06 Link 4 setting changed to   1.00 by Control MC3
   07/29/1985: 11:19:06 Link 13 setting changed to   1.00 by Control MC1
   07/29/1985: 11:19:36 Link 4 setting changed to   0.00 by Control MC3
   07/29/1985: 14:50:06 Link 13 setting changed to   0.00 by Control MC1
   07/29/1985: 14:50:36 Link 4 setting changed to   1.00 by Control MC3
   07/30/1985: 15:10:06 Link 13 setting changed to   1.00 by Control MC1
   07/30/1985: 15:10:36 Link 4 setting changed to   0.00 by Control MC3
   07/30/1985: 20:23:36 Link 13 setting changed to   0.00 by Control MC1
   07/30/1985: 20:24:06 Link 4 setting changed to   1.00 by Control MC3
   08/03/1985: 19:13:36 Link 13 setting changed to   1.00 by Control MC1
   08/03/1985: 19:14:06 Link 4 setting changed to   0.00 by Control MC3
   08/03/1985: 23:20:36 Link 13 setting changed to   0.00 by Control MC1
   08/03/1985: 23:21:06 Link 4 setting changed to   1.00 by Control MC3
   08/04/1985: 11:08:06 Link 13 setting changed to   1.00 by Control MC1
   08/04/1985: 11:08:36 Link 4 setting changed to   0.00 by Control MC3
   08/04/1985: 12:09:36 Link 2 setting changed to   0.00 by Control Emergency
   08/04/1985: 13:48:36 Link 2 setting changed to   1.00 by Control NonEmergency
   08/04/1985: 17:56:06 Link 13 setting changed to   0.00 by Control MC1
   08/04/1985: 17:56:36 Link 4 setting changed to   1.00 by Control MC3
   08/05/1985: 07:16:36 Link 13 setting changed to   1.00 by Control MC1
   08/05/1985: 07:17:06 Link 4 setting changed to   0.00 by Control MC3
   08/05/1985: 10:59:06 Link 13 setting changed to   0.00 by Control MC1
   08/05/1985: 10:59:36 Link 4 setting changed to   1.00 by Control MC3
   08/05/1985: 22:12:06 Link 13 setting changed to   1.00 by Control MC1
   08/05/1985: 22:12:36 Link 4 setting changed to   0.00 by Control MC3
   08/06/1985: 04:21:06 Link 13 setting changed to   0.00 by Control MC1
   08/06/1985: 04:21:36 Link 4 setting changed to   1.00 by Control MC3
   08/06/1985: 19:56:06 Link 13 setting changed to   1.00 by Control MC1
   08/06/1985: 19:56:36 Link 4 setting changed to   0.00 by Control MC3
   08/06/1985: 20:24:06 Link 13 setting changed to   0.00 by Control MC1
   08/06/1985: 20:24:36 Link 4 setting changed to   1.00 by Control MC3
   08/06/1985: 22:42:06 Link 13 setting changed to   1.00 by Control MC1
   08/06/1985: 22:42:36 Link 4 setting changed to   0.00 by Control MC3
   08/06/1985: 23:43:06 Link 13 setting changed to   0.00 by Control MC1
   08/06/1985: 23:43:36 Link 4 setting changed to   1.00 by Control MC3
   08/07/1985: 11:00:06 Link 13 setting changed to   1.00 by Control MC1
   08/07/1985: 11:00:36 Link 4 setting changed to   0.00 by Control MC3
   08/07/1985: 17:14:06 Link 13 setting changed to   0.00 by Control MC1
   08/07/1985: 17:14:36 Link 4 setting changed to   1.00 by Control MC3
   08/24/1985: 05:12:06 Link 13 setting changed to   1.00 by Control MC1
   08/24/1985: 05:12:36 Link 4 setting changed to   0.00 by Control MC3
   08/24/1985: 12:48:36 Link 13 setting changed to   0.00 by Control MC1
   08/24/1985: 12:49:06 Link 4 setting changed to   1.00 by Control MC3
   09/02/1985: 20:30:06 Link 13 setting changed to   1.00 by Control MC1
   09/02/1985: 20:30:36 Link 4 setting changed to   0.00 by Control MC3
   09/03/1985: 01:13:06 Link 13 setting changed to   0.00 by Control MC1
   09/03/1985: 01:13:36 Link 4 setting changed to   1.00 by Control MC3
   09/04/1985: 17:23:06 Link 13 setting changed to   1.00 by Control MC1
   09/04/1985: 17:23:36 Link 4 setting changed to   0.00 by Control MC3
   09/05/1985: 00:45:06 Link 13 setting changed to   0.00 by Control MC1
   09/05/1985: 00:45:36 Link 4 setting changed to   1.00 by Control MC3
   09/05/1985: 07:32:36 Link 13 setting changed to   1.00 by Control MC1
   09/05/1985: 07:33:06 Link 4 setting changed to   0.00 by Control MC3
   09/05/1985: 12:27:36 Link 13 setting changed to   0.00 by Control MC1
   09/05/1985: 12:28:06 Link 4 setting changed to   1.00 by Control MC3
   09/05/1985: 13:28:06 Link 13 setting changed to   1.00 by Control MC1
   09/05/1985: 13:28:36 Link 4 setting changed to   0.00 by Control MC3
   09/05/1985: 14:53:36 Link 13 setting changed to   0.00 by Control MC1
   09/05/1985: 14:54:06 Link 4 setting changed to   1.00 by Control MC3
   09/05/1985: 20:43:06 Link 13 setting changed to   1.00 by Control MC1
   09/05/1985: 20:43:36 Link 4 setting changed to   0.00 by Control MC3
   09/05/1985: 22:02:06 Link 13 setting changed to   0.00 by Control MC1
   09/05/1985: 22:02:36 Link 4 setting changed to   1.00 by Control MC3
   09/11/1985: 14:27:06 Link 13 setting changed to   1.00 by Control MC1
   09/11/1985: 14:27:36 Link 4 setting changed to   0.00 by Control MC3
   09/11/1985: 18:59:36 Link 13 setting changed to   0.00 by Control MC1
   09/11/1985: 19:00:06 Link 4 setting changed to   1.00 by Control MC3
   09/18/1985: 12:21:06 Link 13 setting changed to   1.00 by Control MC1
   09/18/1985: 12:21:36 Link 4 setting changed to   0.00 by Control MC3
   09/18/1985: 17:05:06 Link 13 setting changed to   0.00 by Control MC1
   09/18/1985: 17:05:36 Link 4 setting changed to   1.00 by Control MC3
   09/18/1985: 19:09:06 Link 13 setting changed to   1.00 by Control MC1
   09/18/1985: 19:09:36 Link 4 setting changed to   0.00 by Control MC3
   09/18/1985: 23:40:36 Link 13 setting changed to   0.00 by Control MC1
   09/18/1985: 23:41:06 Link 4 setting changed to   1.00 by Control MC3
   09/19/1985: 02:17:36 Link 13 setting changed to   1.00 by Control MC1
   09/19/1985: 02:18:06 Link 4 setting changed to   0.00 by Control MC3
   09/19/1985: 05:26:06 Link 13 setting changed to   0.00 by Control MC1
   09/19/1985: 05:26:36 Link 4 setting changed to   1.00 by Control MC3
   09/19/1985: 06:11:36 Link 13 setting changed to   1.00 by Control MC1
   09/19/1985: 06:12:06 Link 4 setting changed to   0.00 by Control MC3
   09/19/1985: 09:17:06 Link 13 setting changed to   0.00 by Control MC1
   09/19/1985: 09:17:36 Link 4 setting changed to   1.00 by Control MC3
   09/19/1985: 12:09:06 Link 13 setting changed to   1.00 by Control MC1
   09/19/1985: 12:09:36 Link 4 setting changed to   0.00 by Control MC3
   09/19/1985: 16:31:06 Link 13 setting changed to   0.00 by Control MC1
   09/19/1985: 16:31:36 Link 4 setting changed to   1.00 by Control MC3
   09/21/1985: 13:32:06 Link 13 setting changed to   1.00 by Control MC1
   09/21/1985: 13:32:36 Link 4 setting changed to   0.00 by Control MC3
   09/21/1985: 21:31:36 Link 13 setting changed to   0.00 by Control MC1
   09/21/1985: 21:32:06 Link 4 setting changed to   1.00 by Control MC3
   09/21/1985: 22:58:06 Link 13 setting changed to   1.00 by Control MC1
   09/21/1985: 22:58:36 Link 4 setting changed to   0.00 by Control MC3
   09/22/1985: 00:51:06 Link 13 setting changed to   0.00 by Control MC1
   09/22/1985: 00:51:36 Link 4 setting changed to   1.00 by Control MC3
   09/22/1985: 01:10:36 Link 13 setting changed to   1.00 by Control MC1
   09/22/1985: 01:11:06 Link 4 setting changed to   0.00 by Control MC3
   09/22/1985: 03:39:36 Link 13 setting changed to   0.00 by Control MC1
   09/22/1985: 03:40:06 Link 4 setting changed to   1.00 by Control MC3
   09/22/1985: 05:04:36 Link 13 setting changed to   1.00 by Control MC1
   09/22/1985: 05:05:06 Link 4 setting changed to   0.00 by Control MC3
   09/22/1985: 08:24:06 Link 13 setting changed to   0.00 by Control MC1
   09/22/1985: 08:24:36 Link 4 setting changed to   1.00 by Control MC3
   09/22/1985: 09:55:06 Link 13 setting changed to   1.00 by Control MC1
   09/22/1985: 09:55:36 Link 4 setting changed to   0.00 by Control MC3
   09/22/1985: 10:15:06 Link 13 setting changed to   0.00 by Control MC1
   09/22/1985: 10:15:36 Link 4 setting changed to   1.00 by Control MC3
   09/24/1985: 00:34:06 Link 13 setting changed to   1.00 by Control MC1
   09/24/1985: 00:34:36 Link 4 setting changed to   0.00 by Control MC3
   09/24/1985: 02:52:36 Link 13 setting changed to   0.00 by Control MC1
   09/24/1985: 02:53:06 Link 4 setting changed to   1.00 by Control MC3
   09/24/1985: 07:40:36 Link 13 setting changed to   1.00 by Control MC1
   09/24/1985: 07:41:06 Link 4 setting changed to   0.00 by Control MC3
   09/24/1985: 09:07:36 Link 13 setting changed to   0.00 by Control MC1
   09/24/1985: 09:08:06 Link 4 setting changed to   1.00 by Control MC3
   09/24/1985: 12:50:06 Link 13 setting changed to   1.00 by Control MC1
   09/24/1985: 12:50:36 Link 4 setting changed to   0.00 by Control MC3
   09/24/1985: 13:36:06 Link 13 setting changed to   0.00 by Control MC1
   09/24/1985: 13:36:36 Link 4 setting changed to   1.00 by Control MC3
   09/24/1985: 14:12:06 Link 13 setting changed to   1.00 by Control MC1
   09/24/1985: 14:12:36 Link 4 setting changed to   0.00 by Control MC3
   09/24/1985: 16:52:36 Link 13 setting changed to   0.00 by Control MC1
   09/24/1985: 16:53:06 Link 4 setting changed to   1.00 by Control MC3
   09/24/1985: 19:22:36 Link 13 setting changed to   1.00 by Control MC1
   09/24/1985: 19:23:06 Link 4 setting changed to   0.00 by Control MC3
   09/24/1985: 22:00:06 Link 13 setting changed to   0.00 by Control MC1
   09/24/1985: 22:00:36 Link 4 setting changed to   1.00 by Control MC3
   09/25/1985: 00:33:06 Link 13 setting changed to   1.00 by Control MC1
   09/25/1985: 00:33:36 Link 4 setting changed to   0.00 by Control MC3
   09/25/1985: 04:33:06 Link 13 setting changed to   0.00 by Control MC1
   09/25/1985: 04:33:36 Link 4 setting changed to   1.00 by Control MC3
   09/25/1985: 13:19:06 Link 13 setting changed to   1.00 by Control MC1
   09/25/1985: 13:19:36 Link 4 setting changed to   0.00 by Control MC3
   09/25/1985: 17:33:06 Link 13 setting changed to   0.00 by Control MC1
   09/25/1985: 17:33:36 Link 4 setting changed to   1.00 by Control MC3
   09/25/1985: 18:15:06 Link 13 setting changed to   1.00 by Control MC1
   09/25/1985: 18:15:36 Link 4 setting changed to   0.00 by Control MC3
   09/25/1985: 21:37:06 Link 13 setting changed to   0.00 by Control MC1
   09/25/1985: 21:37:36 Link 4 setting changed to   1.00 by Control MC3
   09/26/1985: 00:33:06 Link 13 setting changed to   1.00 by Control MC1
   09/26/1985: 00:33:36 Link 4 setting changed to   0.00 by Control MC3
   09/26/1985: 02:18:36 Link 13 setting changed to   0.00 by Control MC1
   09/26/1985: 02:19:06 Link 4 setting changed to   1.00 by Control MC3
   09/26/1985: 11:16:36 Link 13 setting changed to   1.00 by Control MC1
   09/26/1985: 11:17:06 Link 4 setting changed to   0.00 by Control MC3
   09/26/1985: 14:47:06 Link 13 setting changed to   0.00 by Control MC1
   09/26/1985: 14:47:36 Link 4 setting changed to   1.00 by Control MC3
   09/27/1985: 17:55:06 Link 13 setting changed to   1.00 by Control MC1
   09/27/1985: 17:55:36 Link 4 setting changed to   0.00 by Control MC3
   09/27/1985: 18:39:36 Link 13 setting changed to   0.00 by Control MC1
   09/27/1985: 18:40:06 Link 4 setting changed to   1.00 by Control MC3
   10/01/1985: 04:23:36 Link 13 setting changed to   1.00 by Control MC1
   10/01/1985: 04:24:06 Link 4 setting changed to   0.00 by Control MC3
   10/01/1985: 07:22:36 Link 13 setting changed to   0.00 by Control MC1
   10/01/1985: 07:23:06 Link 4 setting changed to   1.00 by Control MC3
   10/01/1985: 12:53:06 Link 13 setting changed to   1.00 by Control MC1
   10/01/1985: 12:53:36 Link 4 setting changed to   0.00 by Control MC3
   10/01/1985: 13:36:36 Link 13 setting changed to   0.00 by Control MC1
   10/01/1985: 13:37:06 Link 4 setting changed to   1.00 by Control MC3
   10/01/1985: 18:22:06 Link 13 setting changed to   1.00 by Control MC1
   10/01/1985: 18:22:36 Link 4 setting changed to   0.00 by Control MC3
   10/01/1985: 21:37:36 Link 13 setting changed to   0.00 by Control MC1
   10/01/1985: 21:38:06 Link 4 setting changed to   1.00 by Control MC3
   10/01/1985: 23:18:36 Link 13 setting changed to   1.00 by Control MC1
   10/01/1985: 23:19:06 Link 4 setting changed to   0.00 by Control MC3
   10/02/1985: 02:01:06 Link 13 setting changed to   0.00 by Control MC1
   10/02/1985: 02:01:36 Link 4 setting changed to   1.00 by Control MC3
   10/02/1985: 02:02:06 Link 13 setting changed to   1.00 by Control MC1
   10/02/1985: 02:02:36 Link 4 setting changed to   0.00 by Control MC3
   10/02/1985: 08:25:06 Link 13 setting changed to   0.00 by Control MC1
   10/02/1985: 08:25:36 Link 4 setting changed to   1.00 by Control MC3
   10/02/1985: 15:34:06 Link 13 setting changed to   1.00 by Control MC1
   10/02/1985: 15:34:36 Link 4 setting changed to   0.00 by Control MC3
   10/02/1985: 23:15:06 Link 13 setting changed to   0.00 by Control MC1
   10/02/1985: 23:15:36 Link 4 setting changed to   1.00 by Control MC3
   10/03/1985: 01:14:36 Link 13 setting changed to   1.00 by Control MC1
   10/03/1985: 01:15:06 Link 4 setting changed to   0.00 by Control MC3
   10/03/1985: 09:18:36 Link 13 setting changed to   0.00 by Control MC1
   10/03/1985: 09:19:06 Link 4 setting changed to   1.00 by Control MC3
   10/03/1985: 22:14:36 Link 13 setting changed to   1.00 by Control MC1
   10/03/1985: 22:15:06 Link 4 setting changed to   0.00 by Control MC3
   10/04/1985: 11:33:36 Link 13 setting changed to   0.00 by Control MC1
   10/04/1985: 11:34:06 Link 4 setting changed to   1.00 by Control MC3
   10/23/1985: 12:50:06 Link 13 setting changed to   1.00 by Control MC1
   10/23/1985: 12:50:36 Link 4 setting changed to   0.00 by Control MC3
   10/23/1985: 15:00:36 Link 13 setting changed to   0.00 by Control MC1
   10/23/1985: 15:01:06 Link 4 setting changed to   1.00 by Control MC3
   10/23/1985: 15:23:36 Link 13 setting changed to   1.00 by Control MC1
   10/23/1985: 15:24:06 Link 4 setting changed to   0.00 by Control MC3
   10/23/1985: 16:34:36 Link 13 setting changed to   0.00 by Control MC1
   10/23/1985: 16:35:06 Link 4 setting changed to   1.00 by Control MC3
   11/01/1985: 06:05:06 Link 13 setting changed to   1.00 by Control MC1
   11/01/1985: 06:05:36 Link 4 setting changed to   0.00 by Control MC3
   11/01/1985: 09:48:06 Link 13 setting changed to   0.00 by Control MC1
   11/01/1985: 09:48:36 Link 4 setting changed to   1.00 by Control MC3
   11/01/1985: 18:22:36 Link 13 setting changed to   1.00 by Control MC1
   11/01/1985: 18:23:06 Link 4 setting changed to   0.00 by Control MC3
   11/01/1985: 21:26:06 Link 13 setting changed to   0.00 by Control MC1
   11/01/1985: 21:26:36 Link 4 setting changed to   1.00 by Control MC3
   11/02/1985: 14:19:06 Link 13 setting changed to   1.00 by Control MC1
   11/02/1985: 14:19:36 Link 4 setting changed to   0.00 by Control MC3
   11/02/1985: 17:47:06 Link 13 setting changed to   0.00 by Control MC1
   11/02/1985: 17:47:36 Link 4 setting changed to   1.00 by Control MC3
   11/03/1985: 09:38:06 Link 13 setting changed to   1.00 by Control MC1
   11/03/1985: 09:38:36 Link 4 setting changed to   0.00 by Control MC3
   11/03/1985: 11:34:06 Link 13 setting changed to   0.00 by Control MC1
   11/03/1985: 11:34:36 Link 4 setting changed to   1.00 by Control MC3
   11/04/1985: 03:33:36 Link 13 setting changed to   1.00 by Control MC1
   11/04/1985: 03:34:06 Link 4 setting changed to   0.00 by Control MC3
   11/04/1985: 05:52:06 Link 13 setting changed to   0.00 by Control MC1
   11/04/1985: 05:52:36 Link 4 setting changed to   1.00 by Control MC3
   11/04/1985: 08:14:06 Link 13 setting changed to   1.00 by Control MC1
   11/04/1985: 08:14:36 Link 4 setting changed to   0.00 by Control MC3
   11/04/1985: 13:04:36 Link 13 setting changed to   0.00 by Control MC1
   11/04/1985: 13:05:06 Link 4 setting changed to   1.00 by Control MC3
   11/05/1985: 02:28:36 Link 13 setting changed to   1.00 by Control MC1
   11/05/1985: 02:29:06 Link 4 setting changed to   0.00 by Control MC3
   11/05/1985: 07:35:36 Link 13 setting changed to   0.00 by Control MC1
   11/05/1985: 07:36:06 Link 4 setting changed to   1.00 by Control MC3
   11/05/1985: 08:09:06 Link 13 setting changed to   1.00 by Control MC1
   11/05/1985: 08:09:36 Link 4 setting changed to   0.00 by Control MC3
   11/05/1985: 12:32:36 Link 13 setting changed to   0.00 by Control MC1
   11/05/1985: 12:33:06 Link 4 setting changed to   1.00 by Control MC3
   11/05/1985: 14:10:06 Link 13 setting changed to   1.00 by Control MC1
   11/05/1985: 14:10:36 Link 4 setting changed to   0.00 by Control MC3
   11/05/1985: 19:30:06 Link 13 setting changed to   0.00 by Control MC1
   11/05/1985: 19:30:36 Link 4 setting changed to   1.00 by Control MC3
   11/12/1985: 02:43:06 Link 13 setting changed to   1.00 by Control MC1
   11/12/1985: 02:43:36 Link 4 setting changed to   0.00 by Control MC3
   11/12/1985: 04:24:06 Link 13 setting changed to   0.00 by Control MC1
   11/12/1985: 04:24:36 Link 4 setting changed to   1.00 by Control MC3
   11/14/1985: 00:18:06 Link 13 setting changed to   1.00 by Control MC1
   11/14/1985: 00:18:36 Link 4 setting changed to   0.00 by Control MC3
   11/14/1985: 03:54:06 Link 13 setting changed to   0.00 by Control MC1
   11/14/1985: 03:54:36 Link 4 setting changed to   1.00 by Control MC3
   11/15/1985: 03:30:36 Link 13 setting changed to   1.00 by Control MC1
   11/15/1985: 03:31:06 Link 4 setting changed to   0.00 by Control MC3
   11/15/1985: 06:04:36 Link 13 setting changed to   0.00 by Control MC1
   11/15/1985: 06:05:06 Link 4 setting changed to   1.00 by Control MC3
   11/15/1985: 07:09:36 Link 13 setting changed to   1.00 by Control MC1
   11/15/1985: 07:10:06 Link 4 setting changed to   0.00 by Control MC3
   11/15/1985: 10:54:06 Link 13 setting changed to   0.00 by Control MC1
   11/15/1985: 10:54:36 Link 4 setting changed to   1.00 by Control MC3
   11/15/1985: 11:04:36 Link 13 setting changed to   1.00 by Control MC1
   11/15/1985: 11:05:06 Link 4 setting changed to   0.00 by Control MC3
   11/15/1985: 14:52:36 Link 13 setting changed to   0.00 by Control MC1
   11/15/1985: 14:53:06 Link 4 setting changed to   1.00 by Control MC3
   11/15/1985: 19:32:36 Link 13 setting changed to   1.00 by Control MC1
   11/15/1985: 19:33:06 Link 4 setting changed to   0.00 by Control MC3
   11/16/1985: 01:14:36 Link 13 setting changed to   0.00 by Control MC1
   11/16/1985: 01:15:06 Link 4 setting changed to   1.00 by Control MC3
   11/16/1985: 03:11:06 Link 13 setting changed to   1.00 by Control MC1
   11/16/1985: 03:11:36 Link 4 setting changed to   0.00 by Control MC3
   11/16/1985: 07:04:06 Link 13 setting changed to   0.00 by Control MC1
   11/16/1985: 07:04:36 Link 4 setting changed to   1.00 by Control MC3
   11/16/1985: 12:19:36 Link 13 setting changed to   1.00 by Control MC1
   11/16/1985: 12:20:06 Link 4 setting changed to   0.00 by Control MC3
   11/16/1985: 15:35:36 Link 13 setting changed to   0.00 by Control MC1
   11/16/1985: 15:36:06 Link 4 setting changed to   1.00 by Control MC3
   11/16/1985: 18:11:36 Link 13 setting changed to   1.00 by Control MC1
   11/16/1985: 18:12:06 Link 4 setting changed to   0.00 by Control MC3
   11/16/1985: 22:09:06 Link 13 setting changed to   0.00 by Control MC1
   11/16/1985: 22:09:36 Link 4 setting changed to   1.00 by Control MC3
   11/18/1985: 04:27:36 Link 13 setting changed to   1.00 by Control MC1
   11/18/1985: 04:28:06 Link 4 setting changed to   0.00 by Control MC3
   11/18/1985: 09:14:06 Link 13 setting changed to   0.00 by Control MC1
   11/18/1985: 09:14:36 Link 4 setting changed to   1.00 by Control MC3
   12/06/1985: 10:10:36 Link 13 setting changed to   1.00 by Control MC1
   12/06/1985: 10:11:06 Link 4 setting changed to   0.00 by Control MC3
   12/06/1985: 12:12:36 Link 2 setting changed to   0.00 by Control Emergency
   12/06/1985: 13:33:43 Link 2 setting changed to   1.00 by Control NonEmergency
   12/06/1985: 16:33:43 Link 2 setting changed to   0.00 by Control Emergency
   12/06/1985: 17:13:13 Link 2 setting changed to   1.00 by Control NonEmergency
   12/06/1985: 19:53:43 Link 2 setting changed to   0.00 by Control Emergency
   12/06/1985: 20:09:43 Link 2 setting changed to   1.00 by Control NonEmergency
   12/07/1985: 00:04:43 Link 13 setting changed to   0.00 by Control MC1
   12/07/1985: 00:05:13 Link 4 setting changed to   1.00 by Control MC3
   12/07/1985: 00:27:43 Link 13 setting changed to   1.00 by Control MC1
   12/07/1985: 00:28:13 Link 4 setting changed to   0.00 by Control MC3
   12/07/1985: 01:17:13 Link 13 setting changed to   0.00 by Control MC1
   12/07/1985: 01:17:43 Link 4 setting changed to   1.00 by Control MC3
   12/07/1985: 09:55:43 Link 13 setting changed to   1.00 by Control MC1
   12/07/1985: 09:56:13 Link 4 setting changed to   0.00 by Control MC3
   12/07/1985: 10:22:43 Link 13 setting changed to   0.00 by Control MC1
   12/07/1985: 10:23:13 Link 4 setting changed to   1.00 by Control MC3
   12/07/1985: 15:59:13 Link 13 setting changed to   1.00 by Control MC1
   12/07/1985: 15:59:43 Link 4 setting changed to   0.00 by Control MC3
   12/07/1985: 16:22:43 Link 13 setting changed to   0.00 by Control MC1
   12/07/1985: 16:23:13 Link 4 setting changed to   1.00 by Control MC3
   12/07/1985: 19:15:43 Link 13 setting changed to   1.00 by Control MC1
   12/07/1985: 19:16:13 Link 4 setting changed to   0.00 by Control MC3
   12/08/1985: 01:39:13 Link 13 setting changed to   0.00 by Control MC1
   12/08/1985: 01:39:43 Link 4 setting changed to   1.00 by Control MC3
   12/24/1985: 01:20:13 Link 13 setting changed to   1.00 by Control MC1
   12/24/1985: 01:20:43 Link 4 setting changed to   0.00 by Control MC3
   12/24/1985: 04:43:13 Link 13 setting changed to   0.00 by Control MC1
   12/24/1985: 04:43:43 Link 4 setting changed to   1.00 by Control MC3
   12/24/1985: 05:16:43 Link 13 setting changed to   1.00 by Control MC1
   12/24/1985: 05:17:13 Link 4 setting changed to   0.00 by Control MC3
   12/24/1985: 09:01:13 Link 13 setting changed to   0.00 by Control MC1
   12/24/1985: 09:01:43 Link 4 setting changed to   1.00 by Control MC3
   12/24/1985: 10:27:13 Link 13 setting changed to   1.00 by Control MC1
   12/24/1985: 10:27:43 Link 4 setting changed to   0.00 by Control MC3
   12/24/1985: 15:12:43 Link 13 setting changed to   0.00 by Control MC1
   12/24/1985: 15:13:13 Link 4 setting changed to   1.00 by Control MC3
   12/24/1985: 17:50:13 Link 13 setting changed to   1.00 by Control MC1
   12/24/1985: 17:50:43 Link 4 setting changed to   0.00 by Control MC3
   12/25/1985: 01:05:13 Link 13 setting changed to   0.00 by Control MC1
   12/25/1985: 01:05:43 Link 4 setting changed to   1.00 by Control MC3
   01/01/1986: 06:43:13 Link 13 setting changed to   1.00 by Control MC1
   01/01/1986: 06:43:43 Link 4 setting changed to   0.00 by Control MC3
   01/01/1986: 08:09:43 Link 13 setting changed to   0.00 by Control MC1
   01/01/1986: 08:10:13 Link 4 setting changed to   1.00 by Control MC3
   01/01/1986: 11:56:43 Link 13 setting changed to   1.00 by Control MC1
   01/01/1986: 11:57:13 Link 4 setting changed to   0.00 by Control MC3
   01/01/1986: 12:26:13 Link 13 setting changed to   0.00 by Control MC1
   01/01/1986: 12:26:43 Link 4 setting changed to   1.00 by Control MC3
   01/02/1986: 05:58:43 Link 13 setting changed to   1.00 by Control MC1
   01/02/1986: 05:59:13 Link 4 setting changed to   0.00 by Control MC3
   01/02/1986: 06:29:43 Link 13 setting changed to   0.00 by Control MC1
   01/02/1986: 06:30:13 Link 4 setting changed to   1.00 by Control MC3
   01/08/1986: 23:45:13 Link 13 setting changed to   1.00 by Control MC1
   01/08/1986: 23:45:43 Link 4 setting changed to   0.00 by Control MC3
   01/09/1986: 00:44:43 Link 13 setting changed to   0.00 by Control MC1
   01/09/1986: 00:45:13 Link 4 setting changed to   1.00 by Control MC3
   01/12/1986: 03:36:43 Link 13 setting changed to   1.00 by Control MC1
   01/12/1986: 03:37:13 Link 4 setting changed to   0.00 by Control MC3
   01/12/1986: 04:27:43 Link 13 setting changed to   0.00 by Control MC1
   01/12/1986: 04:28:13 Link 4 setting changed to   1.00 by Control MC3
   01/12/1986: 05:25:13 Link 13 setting changed to   1.00 by Control MC1
   01/12/1986: 05:25:43 Link 4 setting changed to   0.00 by Control MC3
   01/12/1986: 15:52:13 Link 13 setting changed to   0.00 by Control MC1
   01/12/1986: 15:52:43 Link 4 setting changed to   1.00 by Control MC3
   01/14/1986: 18:49:13 Link 13 setting changed to   1.00 by Control MC1
   01/14/1986: 18:49:43 Link 4 setting changed to   0.00 by Control MC3
   01/15/1986: 09:53:43 Link 13 setting changed to   0.00 by Control MC1
   01/15/1986: 09:54:13 Link 4 setting changed to   1.00 by Control MC3
   01/15/1986: 10:35:13 Link 13 setting changed to   1.00 by Control MC1
   01/15/1986: 10:35:43 Link 4 setting changed to   0.00 by Control MC3
   01/15/1986: 11:18:13 Link 13 setting changed to   0.00 by Control MC1
   01/15/1986: 11:18:43 Link 4 setting changed to   1.00 by Control MC3
   01/15/1986: 12:28:13 Link 13 setting changed to   1.00 by Control MC1
   01/15/1986: 12:28:43 Link 4 setting changed to   0.00 by Control MC3
   01/15/1986: 17:15:43 Link 13 setting changed to   0.00 by Control MC1
   01/15/1986: 17:16:13 Link 4 setting changed to   1.00 by Control MC3
   01/15/1986: 20:30:43 Link 13 setting changed to   1.00 by Control MC1
   01/15/1986: 20:31:13 Link 4 setting changed to   0.00 by Control MC3
   01/15/1986: 23:30:13 Link 13 setting changed to   0.00 by Control MC1
   01/15/1986: 23:30:43 Link 4 setting changed to   1.00 by Control MC3
   01/20/1986: 07:54:13 Link 13 setting changed to   1.00 by Control MC1
   01/20/1986: 07:54:43 Link 4 setting changed to   0.00 by Control MC3
   01/20/1986: 08:18:43 Link 13 setting changed to   0.00 by Control MC1
   01/20/1986: 08:19:13 Link 4 setting changed to   1.00 by Control MC3
   01/20/1986: 10:52:43 Link 13 setting changed to   1.00 by Control MC1
   01/20/1986: 10:53:13 Link 4 setting changed to   0.00 by Control MC3
   01/20/1986: 11:35:43 Link 13 setting changed to   0.00 by Control MC1
   01/20/1986: 11:36:13 Link 4 setting changed to   1.00 by Control MC3
   01/20/1986: 18:09:43 Link 13 setting changed to   1.00 by Control MC1
   01/20/1986: 18:10:13 Link 4 setting changed to   0.00 by Control MC3
   01/20/1986: 20:43:43 Link 13 setting changed to   0.00 by Control MC1
   01/20/1986: 20:44:13 Link 4 setting changed to   1.00 by Control MC3
   01/20/1986: 22:48:13 Link 13 setting changed to   1.00 by Control MC1
   01/20/1986: 22:48:43 Link 4 setting changed to   0.00 by Control MC3
   01/20/1986: 23:19:13 Link 13 setting changed to   0.00 by Control MC1
   01/20/1986: 23:19:43 Link 4 setting changed to   1.00 by Control MC3
   01/23/1986: 13:41:43 Link 13 setting changed to   1.00 by Control MC1
   01/23/1986: 13:42:13 Link 4 setting changed to   0.00 by Control MC3
   01/23/1986: 14:22:43 Link 13 setting changed to   0.00 by Control MC1
   01/23/1986: 14:23:13 Link 4 setting changed to   1.00 by Control MC3
   01/28/1986: 05:55:13 Link 13 setting changed to   1.00 by Control MC1
   01/28/1986: 05:55:43 Link 4 setting changed to   0.00 by Control MC3
   01/28/1986: 23:11:13 Link 13 setting changed to   0.00 by Control MC1
   01/28/1986: 23:11:43 Link 4 setting changed to   1.00 by Control MC3
   02/07/1986: 09:12:13 Link 13 setting changed to   1.00 by Control MC1
   02/07/1986: 09:12:43 Link 4 setting changed to   0.00 by Control MC3
   02/07/1986: 11:28:13 Link 13 setting changed to   0.00 by Control MC1
   02/07/1986: 11:28:43 Link 4 setting changed to   1.00 by Control MC3
   02/07/1986: 12:44:43 Link 13 setting changed to   1.00 by Control MC1
   02/07/1986: 12:45:13 Link 4 setting changed to   0.00 by Control MC3
   02/07/1986: 13:32:43 Link 13 setting changed to   0.00 by Control MC1
   02/07/1986: 13:33:13 Link 4 setting changed to   1.00 by Control MC3
   02/07/1986: 15:00:13 Link 13 setting changed to   1.00 by Control MC1
   02/07/1986: 15:00:43 Link 4 setting changed to   0.00 by Control MC3
   02/07/1986: 15:05:13 Link 13 setting changed to   0.00 by Control MC1
   02/07/1986: 15:05:43 Link 4 setting changed to   1.00 by Control MC3
   02/07/1986: 17:40:13 Link 13 setting changed to   1.00 by Control MC1
   02/07/1986: 17:40:43 Link 4 setting changed to   0.00 by Control MC3
   02/07/1986: 20:02:43 Link 13 setting changed to   0.00 by Control MC1
   02/07/1986: 20:03:13 Link 4 setting changed to   1.00 by Control MC3
   02/10/1986: 02:57:13 Link 13 setting changed to   1.00 by Control MC1
   02/10/1986: 02:57:43 Link 4 setting changed to   0.00 by Control MC3
   02/10/1986: 10:28:43 Link 13 setting changed to   0.00 by Control MC1
   02/10/1986: 10:29:13 Link 4 setting changed to   1.00 by Control MC3
   02/10/1986: 11:55:13 Link 13 setting changed to   1.00 by Control MC1
   02/10/1986: 11:55:43 Link 4 setting changed to   0.00 by Control MC3
   02/10/1986: 17:43:13 Link 13 setting changed to   0.00 by Control MC1
   02/10/1986: 17:43:43 Link 4 setting changed to   1.00 by Control MC3
   02/10/1986: 19:01:43 Link 13 setting changed to   1.00 by Control MC1
   02/10/1986: 19:02:13 Link 4 setting changed to   0.00 by Control MC3
   02/11/1986: 00:52:43 Link 13 setting changed to   0.00 by Control MC1
   02/11/1986: 00:53:13 Link 4 setting changed to   1.00 by Control MC3
   02/13/1986: 03:22:13 Link 13 setting changed to   1.00 by Control MC1
   02/13/1986: 03:22:43 Link 4 setting changed to   0.00 by Control MC3
   02/13/1986: 07:47:13 Link 13 setting changed to   0.00 by Control MC1
   02/13/1986: 07:47:43 Link 4 setting changed to   1.00 by Control MC3
   02/13/1986: 10:26:13 Link 13 setting changed to   1.00 by Control MC1
   02/13/1986: 10:26:43 Link 4 setting changed to   0.00 by Control MC3
   02/13/1986: 13:02:13 Link 13 setting changed to   0.00 by Control MC1
   02/13/1986: 13:02:43 Link 4 setting changed to   1.00 by Control MC3
   02/13/1986: 13:08:13 Link 13 setting changed to   1.00 by Control MC1
   02/13/1986: 13:08:43 Link 4 setting changed to   0.00 by Control MC3
   02/13/1986: 14:19:13 Link 13 setting changed to   0.00 by Control MC1
   02/13/1986: 14:19:43 Link 4 setting changed to   1.00 by Control MC3
   02/13/1986: 17:50:43 Link 13 setting changed to   1.00 by Control MC1
   02/13/1986: 17:51:13 Link 4 setting changed to   0.00 by Control MC3
   02/14/1986: 10:06:43 Link 13 setting changed to   0.00 by Control MC1
   02/14/1986: 10:07:13 Link 4 setting changed to   1.00 by Control MC3
   02/14/1986: 10:16:13 Link 13 setting changed to   1.00 by Control MC1
   02/14/1986: 10:16:43 Link 4 setting changed to   0.00 by Control MC3
   02/14/1986: 12:37:43 Link 13 setting changed to   0.00 by Control MC1
   02/14/1986: 12:38:13 Link 4 setting changed to   1.00 by Control MC3
   02/14/1986: 15:21:13 Link 13 setting changed to   1.00 by Control MC1
   02/14/1986: 15:21:43 Link 4 setting changed to   0.00 by Control MC3
   02/14/1986: 23:11:43 Link 13 setting changed to   0.00 by Control MC1
   02/14/1986: 23:12:13 Link 4 setting changed to   1.00 by Control MC3
   02/16/1986: 10:30:43 Link 13 setting changed to   1.00 by Control MC1
   02/16/1986: 10:31:13 Link 4 setting changed to   0.00 by Control MC3
   02/16/1986: 15:51:43 Link 13 setting changed to   0.00 by Control MC1
   02/16/1986: 15:52:13 Link 4 setting changed to   1.00 by Control MC3
   02/16/1986: 16:17:13 Link 13 setting changed to   1.00 by Control MC1
   02/16/1986: 16:17:43 Link 4 setting changed to   0.00 by Control MC3
   02/16/1986: 19:44:43 Link 13 setting changed to   0.00 by Control MC1
   02/16/1986: 19:45:13 Link 4 setting changed to   1.00 by Control MC3
   02/19/1986: 06:21:43 Link 13 setting changed to   1.00 by Control MC1
   02/19/1986: 06:22:13 Link 4 setting changed to   0.00 by Control MC3
   02/19/1986: 21:56:13 Link 13 setting changed to   0.00 by Control MC1
   02/19/1986: 21:56:43 Link 4 setting changed to   1.00 by Control MC3
   02/25/1986: 08:21:43 Link 13 setting changed to   1.00 by Control MC1
   02/25/1986: 08:22:13 Link 4 setting changed to   0.00 by Control MC3
   02/25/1986: 10:55:43 Link 13 setting changed to   0.00 by Control MC1
   02/25/1986: 10:56:13 Link 4 setting changed to   1.00 by Control MC3
   02/25/1986: 13:37:13 Link 13 setting changed to   1.00 by Control MC1
   02/25/1986: 13:37:43 Link 4 setting changed to   0.00 by Control MC3
   02/25/1986: 14:39:43 Link 13 setting changed to   0.00 by Control MC1
   02/25/1986: 14:40:13 Link 4 setting changed to   1.00 by Control MC3
   02/25/1986: 15:51:13 Link 13 setting changed to   1.00 by Control MC1
   02/25/1986: 15:51:43 Link 4 setting changed to   0.00 by Control MC3
   02/25/1986: 20:05:43 Link 13 setting changed to   0.00 by Control MC1
   02/25/1986: 20:06:13 Link 4 setting changed to   1.00 by Control MC3
   02/25/1986: 21:52:13 Link 13 setting changed to   1.00 by Control MC1
   02/25/1986: 21:52:43 Link 4 setting changed to   0.00 by Control MC3
   02/25/1986: 23:16:13 Link 13 setting changed to   0.00 by Control MC1
   02/25/1986: 23:16:43 Link 4 setting changed to   1.00 by Control MC3
   02/26/1986: 04:13:43 Link 13 setting changed to   1.00 by Control MC1
   02/26/1986: 04:14:13 Link 4 setting changed to   0.00 by Control MC3
   02/26/1986: 04:14:43 Link 13 setting changed to   0.00 by Control MC1
   02/26/1986: 04:15:13 Link 4 setting changed to   1.00 by Control MC3
   02/26/1986: 05:20:13 Link 13 setting changed to   1.00 by Control MC1
   02/26/1986: 05:20:43 Link 4 setting changed to   0.00 by Control MC3
   02/27/1986: 01:17:13 Link 13 setting changed to   0.00 by Control MC1
   02/27/1986: 01:17:43 Link 4 setting changed to   1.00 by Control MC3
   03/04/1986: 06:05:43 Link 13 setting changed to   1.00 by Control MC1
   03/04/1986: 06:06:13 Link 4 setting changed to   0.00 by Control MC3
   03/04/1986: 17:35:13 Link 13 setting changed to   0.00 by Control MC1
   03/04/1986: 17:35:43 Link 4 setting changed to   1.00 by Control MC3
   03/04/1986: 18:41:43 Link 13 setting changed to   1.00 by Control MC1
   03/04/1986: 18:42:13 Link 4 setting changed to   0.00 by Control MC3
   03/05/1986: 04:44:43 Link 13 setting changed to   0.00 by Control MC1
   03/05/1986: 04:45:13 Link 4 setting changed to   1.00 by Control MC3
   03/05/1986: 09:42:13 Link 13 setting changed to   1.00 by Control MC1
   03/05/1986: 09:42:43 Link 4 setting changed to   0.00 by Control MC3
   03/05/1986: 09:46:43 Link 13 setting changed to   0.00 by Control MC1
   03/05/1986: 09:47:13 Link 4 setting changed to   1.00 by Control MC3
   03/05/1986: 10:39:13 Link 13 setting changed to   1.00 by Control MC1
   03/05/1986: 10:39:43 Link 4 setting changed to   0.00 by Control MC3
   03/05/1986: 12:23:13 Link 13 setting changed to   0.00 by Control MC1
   03/05/1986: 12:23:43 Link 4 setting changed to   1.00 by Control MC3
   03/08/1986: 11:42:13 Link 13 setting changed to   1.00 by Control MC1
   03/08/1986: 11:42:43 Link 4 setting changed to   0.00 by Control MC3
   03/08/1986: 13:17:43 Link 13 setting changed to   0.00 by Control MC1
   03/08/1986: 13:18:13 Link 4 setting changed to   1.00 by Control MC3
   03/10/1986: 22:31:13 Link 13 setting changed to   1.00 by Control MC1
   03/10/1986: 22:31:43 Link 4 setting changed to   0.00 by Control MC3
   03/11/1986: 01:10:13 Link 13 setting changed to   0.00 by Control MC1
   03/11/1986: 01:10:43 Link 4 setting changed to   1.00 by Control MC3
   03/11/1986: 07:36:13 Link 13 setting changed to   1.00 by Control MC1
   03/11/1986: 07:36:43 Link 4 setting changed to   0.00 by Control MC3
   03/11/1986: 11:49:43 Link 13 setting changed to   0.00 by Control MC1
   03/11/1986: 11:50:13 Link 4 setting changed to   1.00 by Control MC3
   03/12/1986: 12:49:43 Link 13 setting changed to   1.00 by Control MC1
   03/12/1986: 12:50:13 Link 4 setting changed to   0.00 by Control MC3
   03/12/1986: 13:56:13 Link 13 setting changed to   0.00 by Control MC1
   03/12/1986: 13:56:43 Link 4 setting changed to   1.00 by Control MC3
   03/12/1986: 23:40:43 Link 13 setting changed to   1.00 by Control MC1
   03/12/1986: 23:41:13 Link 4 setting changed to   0.00 by Control MC3
   03/13/1986: 06:23:43 Link 13 setting changed to   0.00 by Control MC1
   03/13/1986: 06:24:13 Link 4 setting changed to   1.00 by Control MC3
   03/13/1986: 15:35:43 Link 13 setting changed to   1.00 by Control MC1
   03/13/1986: 15:36:13 Link 4 setting changed to   0.00 by Control MC3
   03/13/1986: 19:03:43 Link 13 setting changed to   0.00 by Control MC1
   03/13/1986: 19:04:13 Link 4 setting changed to   1.00 by Control MC3
   03/14/1986: 14:24:43 Link 13 setting changed to   1.00 by Control MC1
   03/14/1986: 14:25:13 Link 4 setting changed to   0.00 by Control MC3
   03/14/1986: 19:25:13 Link 13 setting changed to   0.00 by Control MC1
   03/14/1986: 19:25:43 Link 4 setting changed to   1.00 by Control MC3
   03/14/1986: 21:34:43 Link 13 setting changed to   1.00 by Control MC1
   03/14/1986: 21:35:13 Link 4 setting changed to   0.00 by Control MC3
   03/14/1986: 22:38:43 Link 13 setting changed to   0.00 by Control MC1
   03/14/1986: 22:39:13 Link 4 setting changed to   1.00 by Control MC3
   03/15/1986: 10:39:13 Link 13 setting changed to   1.00 by Control MC1
   03/15/1986: 10:39:43 Link 4 setting changed to   0.00 by Control MC3
   03/15/1986: 13:39:43 Link 13 setting changed to   0.00 by Control MC1
   03/15/1986: 13:40:13 Link 4 setting changed to   1.00 by Control MC3
   03/16/1986: 01:44:43 Link 13 setting changed to   1.00 by Control MC1
   03/16/1986: 01:45:13 Link 4 setting changed to   0.00 by Control MC3
   03/16/1986: 04:38:13 Link 13 setting changed to   0.00 by Control MC1
   03/16/1986: 04:38:43 Link 4 setting changed to   1.00 by Control MC3
   03/16/1986: 07:37:13 Link 13 setting changed to   1.00 by Control MC1
   03/16/1986: 07:37:43 Link 4 setting changed to   0.00 by Control MC3
   03/16/1986: 11:52:43 Link 13 setting changed to   0.00 by Control MC1
   03/16/1986: 11:53:13 Link 4 setting changed to   1.00 by Control MC3
   03/16/1986: 13:19:43 Link 13 setting changed to   1.00 by Control MC1
   03/16/1986: 13:20:13 Link 4 setting changed to   0.00 by Control MC3
   03/16/1986: 17:47:43 Link 13 setting changed to   0.00 by Control MC1
   03/16/1986: 17:48:13 Link 4 setting changed to   1.00 by Control MC3
   03/17/1986: 10:52:13 Link 13 setting changed to   1.00 by Control MC1
   03/17/1986: 10:52:43 Link 4 setting changed to   0.00 by Control MC3
   03/17/1986: 11:50:13 Link 13 setting changed to   0.00 by Control MC1
   03/17/1986: 11:50:43 Link 4 setting changed to   1.00 by Control MC3
   03/17/1986: 15:33:13 Link 13 setting changed to   1.00 by Control MC1
   03/17/1986: 15:33:43 Link 4 setting changed to   0.00 by Control MC3
   03/17/1986: 18:57:13 Link 13 setting changed to   0.00 by Control MC1
   03/17/1986: 18:57:43 Link 4 setting changed to   1.00 by Control MC3
   03/17/1986: 19:03:13 Link 13 setting changed to   1.00 by Control MC1
   03/17/1986: 19:03:43 Link 4 setting changed to   0.00 by Control MC3
   03/18/1986: 02:23:43 Link 13 setting changed to   0.00 by Control MC1
   03/18/1986: 02:24:13 Link 4 setting changed to   1.00 by Control MC3
   03/18/1986: 08:45:43 Link 13 setting changed to   1.00 by Control MC1
   03/18/1986: 08:46:13 Link 4 setting changed to   0.00 by Control MC3
   03/18/1986: 12:02:13 Link 13 setting changed to   0.00 by Control MC1
   03/18/1986: 12:02:43 Link 4 setting changed to   1.00 by Control MC3
   03/19/1986: 20:10:43 Link 13 setting changed to   1.00 by Control MC1
   03/19/1986: 20:11:13 Link 4 setting changed to   0.00 by Control MC3
   03/20/1986: 02:07:13 Link 13 setting changed to   0.00 by Control MC1
   03/20/1986: 02:07:43 Link 4 setting changed to   1.00 by Control MC3
   03/20/1986: 03:39:43 Link 13 setting changed to   1.00 by Control MC1
   03/20/1986: 03:40:13 Link 4 setting changed to   0.00 by Control MC3
   03/20/1986: 07:54:43 Link 13 setting changed to   0.00 by Control MC1
   03/20/1986: 07:55:13 Link 4 setting changed to   1.00 by Control MC3
   03/20/1986: 14:32:13 Link 13 setting changed to   1.00 by Control MC1
   03/20/1986: 14:32:43 Link 4 setting changed to   0.00 by Control MC3
   03/20/1986: 18:20:13 Link 13 setting changed to   0.00 by Control MC1
   03/20/1986: 18:20:43 Link 4 setting changed to   1.00 by Control MC3
   03/20/1986: 19:16:43 Link 13 setting changed to   1.00 by Control MC1
   03/20/1986: 19:17:13 Link 4 setting changed to   0.00 by Control MC3
   03/20/1986: 21:46:13 Link 13 setting changed to   0.00 by Control MC1
   03/20/1986: 21:46:43 Link 4 setting changed to   1.00 by Control MC3
   03/20/1986: 22:10:43 Link 13 setting changed to   1.00 by Control MC1
   03/20/1986: 22:11:13 Link 4 setting changed to   0.00 by Control MC3
   03/21/1986: 01:57:13 Link 13 setting changed to   0.00 by Control MC1
   03/21/1986: 01:57:43 Link 4 setting changed to   1.00 by Control MC3
   03/21/1986: 02:12:43 Link 13 setting changed to   1.00 by Control MC1
   03/21/1986: 02:13:13 Link 4 setting changed to   0.00 by Control MC3
   03/21/1986: 03:58:43 Link 13 setting changed to   0.00 by Control MC1
   03/21/1986: 03:59:13 Link 4 setting changed to   1.00 by Control MC3
   03/24/1986: 14:48:43 Link 13 setting changed to   1.00 by Control MC1
   03/24/1986: 14:49:13 Link 4 setting changed to   0.00 by Control MC3
   03/24/1986: 17:37:43 Link 13 setting changed to   0.00 by Control MC1
   03/24/1986: 17:38:13 Link 4 setting changed to   1.00 by Control MC3
   03/27/1986: 09:39:13 Link 13 setting changed to   1.00 by Control MC1
   03/27/1986: 09:39:43 Link 4 setting changed to   0.00 by Control MC3
   03/27/1986: 10:59:13 Link 13 setting changed to   0.00 by Control MC1
   03/27/1986: 10:59:43 Link 4 setting changed to   1.00 by Control MC3
   03/27/1986: 17:51:43 Link 13 setting changed to   1.00 by Control MC1
   03/27/1986: 17:52:13 Link 4 setting changed to   0.00 by Control MC3
   03/27/1986: 20:20:43 Link 13 setting changed to   0.00 by Control MC1
   03/27/1986: 20:21:13 Link 4 setting changed to   1.00 by Control MC3
   03/28/1986: 23:47:13 Link 13 setting changed to   1.00 by Control MC1
   03/28/1986: 23:47:43 Link 4 setting changed to   0.00 by Control MC3
   03/29/1986: 00:41:13 Link 13 setting changed to   0.00 by Control MC1
   03/29/1986: 00:41:43 Link 4 setting changed to   1.00 by Control MC3
   03/29/1986: 11:50:13 Link 13 setting changed to   1.00 by Control MC1
   03/29/1986: 11:50:43 Link 4 setting changed to   0.00 by Control MC3
   03/29/1986: 12:51:43 Link 13 setting changed to   0.00 by Control MC1
   03/29/1986: 12:52:13 Link 4 setting changed to   1.00 by Control MC3
   03/29/1986: 20:10:13 Link 13 setting changed to   1.00 by Control MC1
   03/29/1986: 20:10:43 Link 4 setting changed to   0.00 by Control MC3
   03/30/1986: 01:25:43 Link 13 setting changed to   0.00 by Control MC1
   03/30/1986: 01:26:13 Link 4 setting changed to   1.00 by Control MC3
   03/30/1986: 13:59:43 Link 13 setting changed to   1.00 by Control MC1
   03/30/1986: 14:00:13 Link 4 setting changed to   0.00 by Control MC3
   03/30/1986: 23:26:43 Link 13 setting changed to   0.00 by Control MC1
   03/30/1986: 23:27:13 Link 4 setting changed to   1.00 by Control MC3
   03/31/1986: 00:15:43 Link 13 setting changed to   1.00 by Control MC1
   03/31/1986: 00:16:13 Link 4 setting changed to   0.00 by Control MC3
   03/31/1986: 03:29:43 Link 13 setting changed to   0.00 by Control MC1
   03/31/1986: 03:30:13 Link 4 setting changed to   1.00 by Control MC3
   03/31/1986: 04:18:13 Link 13 setting changed to   1.00 by Control MC1
   03/31/1986: 04:18:43 Link 4 setting changed to   0.00 by Control MC3
   03/31/1986: 07:50:43 Link 13 setting changed to   0.00 by Control MC1
   03/31/1986: 07:51:13 Link 4 setting changed to   1.00 by Control MC3
   03/31/1986: 08:15:43 Link 13 setting changed to   1.00 by Control MC1
   03/31/1986: 08:16:13 Link 4 setting changed to   0.00 by Control MC3
   03/31/1986: 10:03:43 Link 13 setting changed to   0.00 by Control MC1
   03/31/1986: 10:04:13 Link 4 setting changed to   1.00 by Control MC3
   03/31/1986: 16:39:43 Link 13 setting changed to   1.00 by Control MC1
   03/31/1986: 16:40:13 Link 4 setting changed to   0.00 by Control MC3
   04/01/1986: 00:27:43 Link 13 setting changed to   0.00 by Control MC1
   04/01/1986: 00:28:13 Link 4 setting changed to   1.00 by Control MC3
   04/19/1986: 12:41:43 Link 13 setting changed to   1.00 by Control MC1
   04/19/1986: 12:42:13 Link 4 setting changed to   0.00 by Control MC3
   04/19/1986: 14:28:13 Link 13 setting changed to   0.00 by Control MC1
   04/19/1986: 14:28:43 Link 4 setting changed to   1.00 by Control MC3
   04/19/1986: 21:42:13 Link 13 setting changed to   1.00 by Control MC1
   04/19/1986: 21:42:43 Link 4 setting changed to   0.00 by Control MC3
   04/19/1986: 23:10:43 Link 13 setting changed to   0.00 by Control MC1
   04/19/1986: 23:11:13 Link 4 setting changed to   1.00 by Control MC3
   04/20/1986: 09:54:13 Link 13 setting changed to   1.00 by Control MC1
   04/20/1986: 09:54:43 Link 4 setting changed to   0.00 by Control MC3
   04/20/1986: 10:39:43 Link 13 setting changed to   0.00 by Control MC1
   04/20/1986: 10:40:13 Link 4 setting changed to   1.00 by Control MC3
   04/20/1986: 16:17:13 Link 13 setting changed to   1.00 by Control MC1
   04/20/1986: 16:17:43 Link 4 setting changed to   0.00 by Control MC3
   04/20/1986: 21:02:13 Link 13 setting changed to   0.00 by Control MC1
   04/20/1986: 21:02:43 Link 4 setting changed to   1.00 by Control MC3
   04/23/1986: 04:39:13 Link 13 setting changed to   1.00 by Control MC1
   04/23/1986: 04:39:43 Link 4 setting changed to   0.00 by Control MC3
   04/23/1986: 06:37:43 Link 13 setting changed to   0.00 by Control MC1
   04/23/1986: 06:38:13 Link 4 setting changed to   1.00 by Control MC3
   04/24/1986: 14:30:43 Link 13 setting changed to   1.00 by Control MC1
   04/24/1986: 14:31:13 Link 4 setting changed to   0.00 by Control MC3
   04/24/1986: 19:17:43 Link 13 setting changed to   0.00 by Control MC1
   04/24/1986: 19:18:13 Link 4 setting changed to   1.00 by Control MC3
   04/25/1986: 11:16:43 Link 13 setting changed to   1.00 by Control MC1
   04/25/1986: 11:17:13 Link 4 setting changed to   0.00 by Control MC3
   04/25/1986: 15:50:13 Link 13 setting changed to   0.00 by Control MC1
   04/25/1986: 15:50:43 Link 4 setting changed to   1.00 by Control MC3
   04/25/1986: 16:09:13 Link 13 setting changed to   1.00 by Control MC1
   04/25/1986: 16:09:43 Link 4 setting changed to   0.00 by Control MC3
   04/25/1986: 18:53:43 Link 13 setting changed to   0.00 by Control MC1
   04/25/1986: 18:54:13 Link 4 setting changed to   1.00 by Control MC3
   04/25/1986: 20:13:43 Link 13 setting changed to   1.00 by Control MC1
   04/25/1986: 20:14:13 Link 4 setting changed to   0.00 by Control MC3
   04/25/1986: 23:26:43 Link 13 setting changed to   0.00 by Control MC1
   04/25/1986: 23:27:13 Link 4 setting changed to   1.00 by Control MC3
   04/26/1986: 02:29:13 Link 13 setting changed to   1.00 by Control MC1
   04/26/1986: 02:29:43 Link 4 setting changed to   0.00 by Control MC3
   04/26/1986: 04:36:13 Link 13 setting changed to   0.00 by Control MC1
   04/26/1986: 04:36:43 Link 4 setting changed to   1.00 by Control MC3
   04/26/1986: 06:13:43 Link 13 setting changed to   1.00 by Control MC1
   04/26/1986: 06:14:13 Link 4 setting changed to   0.00 by Control MC3
   04/26/1986: 09:34:13 Link 13 setting changed to   0.00 by Control MC1
   04/26/1986: 09:34:43 Link 4 setting changed to   1.00 by Control MC3
   04/26/1986: 19:16:43 Link 13 setting changed to   1.00 by Control MC1
   04/26/1986: 19:17:13 Link 4 setting changed to   0.00 by Control MC3
   04/27/1986: 01:30:13 Link 13 setting changed to   0.00 by Control MC1
   04/27/1986: 01:30:43 Link 4 setting changed to   1.00 by Control MC3
   04/28/1986: 07:53:43 Link 13 setting changed to   1.00 by Control MC1
   04/28/1986: 07:54:13 Link 4 setting changed to   0.00 by Control MC3
   04/28/1986: 08:46:13 Link 13 setting changed to   0.00 by Control MC1
   04/28/1986: 08:46:43 Link 4 setting changed to   1.00 by Control MC3
   04/28/1986: 09:06:13 Link 13 setting changed to   1.00 by Control MC1
   04/28/1986: 09:06:43 Link 4 setting changed to   0.00 by Control MC3
   04/28/1986: 15:13:43 Link 13 setting changed to   0.00 by Control MC1
   04/28/1986: 15:14:13 Link 4 setting changed to   1.00 by Control MC3
   04/28/1986: 16:10:43 Link 13 setting changed to   1.00 by Control MC1
   04/28/1986: 16:11:13 Link 4 setting changed to   0.00 by Control MC3
   04/28/1986: 19:35:43 Link 13 setting changed to   0.00 by Control MC1
   04/28/1986: 19:36:13 Link 4 setting changed to   1.00 by Control MC3
   04/28/1986: 22:20:43 Link 13 setting changed to   1.00 by Control MC1
   04/28/1986: 22:21:13 Link 4 setting changed to   0.00 by Control MC3
   04/29/1986: 01:11:13 Link 13 setting changed to   0.00 by Control MC1
   04/29/1986: 01:11:43 Link 4 setting changed to   1.00 by Control MC3
   05/03/1986: 15:24:13 Link 13 setting changed to   1.00 by Control MC1
   05/03/1986: 15:24:43 Link 4 setting changed to   0.00 by Control MC3
   05/03/1986: 18:29:43 Link 13 setting changed to   0.00 by Control MC1
   05/03/1986: 18:30:13 Link 4 setting changed to   1.00 by Control MC3
   05/03/1986: 22:39:13 Link 13 setting changed to   1.00 by Control MC1
   05/03/1986: 22:39:43 Link 4 setting changed to   0.00 by Control MC3
   05/04/1986: 02:16:13 Link 13 setting changed to   0.00 by Control MC1
   05/04/1986: 02:16:43 Link 4 setting changed to   1.00 by Control MC3
   05/08/1986: 08:40:13 Link 13 setting changed to   1.00 by Control MC1
   05/08/1986: 08:40:43 Link 4 setting changed to   0.00 by Control MC3
   05/08/1986: 10:18:43 Link 13 setting changed to   0.00 by Control MC1
   05/08/1986: 10:19:13 Link 4 setting changed to   1.00 by Control MC3
   05/08/1986: 12:28:43 Link 13 setting changed to   1.00 by Control MC1
   05/08/1986: 12:29:13 Link 4 setting changed to   0.00 by Control MC3
   05/08/1986: 14:23:43 Link 13 setting changed to   0.00 by Control MC1
   05/08/1986: 14:24:13 Link 4 setting changed to   1.00 by Control MC3
   05/08/1986: 17:42:13 Link 13 setting changed to   1.00 by Control MC1
   05/08/1986: 17:42:43 Link 4 setting changed to   0.00 by Control MC3
   05/08/1986: 18:54:43 Link 13 setting changed to   0.00 by Control MC1
   05/08/1986: 18:55:13 Link 4 setting changed to   1.00 by Control MC3
   05/08/1986: 20:18:43 Link 13 setting changed to   1.00 by Control MC1
   05/08/1986: 20:19:13 Link 4 setting changed to   0.00 by Control MC3
   05/09/1986: 00:14:13 Link 13 setting changed to   0.00 by Control MC1
   05/09/1986: 00:14:43 Link 4 setting changed to   1.00 by Control MC3
   05/10/1986: 13:35:43 Link 13 setting changed to   1.00 by Control MC1
   05/10/1986: 13:36:13 Link 4 setting changed to   0.00 by Control MC3
   05/10/1986: 15:51:13 Link 13 setting changed to   0.00 by Control MC1
   05/10/1986: 15:51:43 Link 4 setting changed to   1.00 by Control MC3
   05/10/1986: 20:09:13 Link 13 setting changed to   1.00 by Control MC1
   05/10/1986: 20:09:43 Link 4 setting changed to   0.00 by Control MC3
   05/11/1986: 01:54:43 Link 13 setting changed to   0.00 by Control MC1
   05/11/1986: 01:55:13 Link 4 setting changed to   1.00 by Control MC3
   05/15/1986: 11:42:13 Link 13 setting changed to   1.00 by Control MC1
   05/15/1986: 11:42:43 Link 4 setting changed to   0.00 by Control MC3
   05/15/1986: 13:23:43 Link 13 setting changed to   0.00 by Control MC1
   05/15/1986: 13:24:13 Link 4 setting changed to   1.00 by Control MC3
   05/17/1986: 17:52:13 Link 13 setting changed to   1.00 by Control MC1
   05/17/1986: 17:52:43 Link 4 setting changed to   0.00 by Control MC3
   05/17/1986: 23:16:43 Link 13 setting changed to   0.00 by Control MC1
   05/17/1986: 23:17:13 Link 4 setting changed to   1.00 by Control MC3
   05/20/1986: 03:33:43 Link 13 setting changed to   1.00 by Control MC1
   05/20/1986: 03:34:13 Link 4 setting changed to   0.00 by Control MC3
   05/20/1986: 05:56:13 Link 13 setting changed to   0.00 by Control MC1
   05/20/1986: 05:56:43 Link 4 setting changed to   1.00 by Control MC3
   05/21/1986: 02:22:43 Link 13 setting changed to   1.00 by Control MC1
   05/21/1986: 02:23:13 Link 4 setting changed to   0.00 by Control MC3
   05/21/1986: 05:34:43 Link 13 setting changed to   0.00 by Control MC1
   05/21/1986: 05:35:13 Link 4 setting changed to   1.00 by Control MC3
   05/21/1986: 15:19:13 Link 13 setting changed to   1.00 by Control MC1
   05/21/1986: 15:19:43 Link 4 setting changed to   0.00 by Control MC3
   05/21/1986: 18:43:43 Link 13 setting changed to   0.00 by Control MC1
   05/21/1986: 18:44:13 Link 4 setting changed to   1.00 by Control MC3
   05/22/1986: 05:17:43 Link 13 setting changed to   1.00 by Control MC1
   05/22/1986: 05:18:13 Link 4 setting changed to   0.00 by Control MC3
   05/22/1986: 11:50:43 Link 13 setting changed to   0.00 by Control MC1
   05/22/1986: 11:51:13 Link 4 setting changed to   1.00 by Control MC3
   05/23/1986: 02:27:43 Link 13 setting changed to   1.00 by Control MC1
   05/23/1986: 02:28:13 Link 4 setting changed to   0.00 by Control MC3
   05/23/1986: 05:13:13 Link 13 setting changed to   0.00 by Control MC1
   05/23/1986: 05:13:43 Link 4 setting changed to   1.00 by Control MC3
   05/23/1986: 08:14:43 Link 13 setting changed to   1.00 by Control MC1
   05/23/1986: 08:15:13 Link 4 setting changed to   0.00 by Control MC3
   05/23/1986: 15:48:43 Link 13 setting changed to   0.00 by Control MC1
   05/23/1986: 15:49:13 Link 4 setting changed to   1.00 by Control MC3
   05/24/1986: 07:51:13 Link 13 setting changed to   1.00 by Control MC1
   05/24/1986: 07:51:43 Link 4 setting changed to   0.00 by Control MC3
   05/24/1986: 08:49:43 Link 13 setting changed to   0.00 by Control MC1
   05/24/1986: 08:50:13 Link 4 setting changed to   1.00 by Control MC3
   05/24/1986: 11:21:43 Link 13 setting changed to   1.00 by Control MC1
   05/24/1986: 11:22:13 Link 4 setting changed to   0.00 by Control MC3
   05/24/1986: 15:38:43 Link 13 setting changed to   0.00 by Control MC1
   05/24/1986: 15:39:13 Link 4 setting changed to   1.00 by Control MC3
   05/24/1986: 16:09:43 Link 13 setting changed to   1.00 by Control MC1
   05/24/1986: 16:10:13 Link 4 setting changed to   0.00 by Control MC3
   05/24/1986: 19:14:43 Link 13 setting changed to   0.00 by Control MC1
   05/24/1986: 19:15:13 Link 4 setting changed to   1.00 by Control MC3
   05/24/1986: 23:21:43 Link 13 setting changed to   1.00 by Control MC1
   05/24/1986: 23:22:13 Link 4 setting changed to   0.00 by Control MC3
   05/25/1986: 07:30:43 Link 13 setting changed to   0.00 by Control MC1
   05/25/1986: 07:31:13 Link 4 setting changed to   1.00 by Control MC3
   05/26/1986: 07:27:43 Link 13 setting changed to   1.00 by Control MC1
   05/26/1986: 07:28:13 Link 4 setting changed to   0.00 by Control MC3
   05/26/1986: 10:14:43 Link 13 setting changed to   0.00 by Control MC1
   05/26/1986: 10:15:13 Link 4 setting changed to   1.00 by Control MC3
   05/26/1986: 13:26:13 Link 13 setting changed to   1.00 by Control MC1
   05/26/1986: 13:26:43 Link 4 setting changed to   0.00 by Control MC3
   05/26/1986: 17:51:13 Link 13 setting changed to   0.00 by Control MC1
   05/26/1986: 17:51:43 Link 4 setting changed to   1.00 by Control MC3
   05/27/1986: 02:24:13 Link 13 setting changed to   1.00 by Control MC1
   05/27/1986: 02:24:43 Link 4 setting changed to   0.00 by Control MC3
   05/27/1986: 05:17:13 Link 13 setting changed to   0.00 by Control MC1
   05/27/1986: 05:17:43 Link 4 setting changed to   1.00 by Control MC3
   05/27/1986: 10:08:13 Link 13 setting changed to   1.00 by Control MC1
   05/27/1986: 10:08:43 Link 4 setting changed to   0.00 by Control MC3
   05/27/1986: 14:50:43 Link 13 setting changed to   0.00 by Control MC1
   05/27/1986: 14:51:13 Link 4 setting changed to   1.00 by Control MC3
   05/27/1986: 21:21:43 Link 13 setting changed to   1.00 by Control MC1
   05/27/1986: 21:22:13 Link 4 setting changed to   0.00 by Control MC3
   05/28/1986: 00:25:13 Link 13 setting changed to   0.00 by Control MC1
   05/28/1986: 00:25:43 Link 4 setting changed to   1.00 by Control MC3
   05/28/1986: 02:07:13 Link 13 setting changed to   1.00 by Control MC1
   05/28/1986: 02:07:43 Link 4 setting changed to   0.00 by Control MC3
   05/28/1986: 07:14:13 Link 13 setting changed to   0.00 by Control MC1
   05/28/1986: 07:14:43 Link 4 setting changed to   1.00 by Control MC3
   05/28/1986: 16:14:13 Link 13 setting changed to   1.00 by Control MC1
   05/28/1986: 16:14:43 Link 4 setting changed to   0.00 by Control MC3
   05/28/1986: 19:00:43 Link 13 setting changed to   0.00 by Control MC1
   05/28/1986: 19:01:13 Link 4 setting changed to   1.00 by Control MC3
   05/29/1986: 07:42:13 Link 13 setting changed to   1.00 by Control MC1
   05/29/1986: 07:42:43 Link 4 setting changed to   0.00 by Control MC3
   05/29/1986: 09:17:13 Link 13 setting changed to   0.00 by Control MC1
   05/29/1986: 09:17:43 Link 4 setting changed to   1.00 by Control MC3
   05/30/1986: 05:30:43 Link 13 setting changed to   1.00 by Control MC1
   05/30/1986: 05:31:13 Link 4 setting changed to   0.00 by Control MC3
   05/30/1986: 12:11:13 Link 13 setting changed to   0.00 by Control MC1
   05/30/1986: 12:11:43 Link 4 setting changed to   1.00 by Control MC3
   05/31/1986: 04:34:43 Link 13 setting changed to   1.00 by Control MC1
   05/31/1986: 04:35:13 Link 4 setting changed to   0.00 by Control MC3
   05/31/1986: 06:47:43 Link 13 setting changed to   0.00 by Control MC1
   05/31/1986: 06:48:13 Link 4 setting changed to   1.00 by Control MC3
   05/31/1986: 10:18:43 Link 13 setting changed to   1.00 by Control MC1
   05/31/1986: 10:19:13 Link 4 setting changed to   0.00 by Control MC3
   05/31/1986: 16:56:43 Link 13 setting changed to   0.00 by Control MC1
   05/31/1986: 16:57:13 Link 4 setting changed to   1.00 by Control MC3
   05/31/1986: 17:03:43 Link 13 setting changed to   1.00 by Control MC1
   05/31/1986: 17:04:13 Link 4 setting changed to   0.00 by Control MC3
   05/31/1986: 23:24:13 Link 13 setting changed to   0.00 by Control MC1
   05/31/1986: 23:24:43 Link 4 setting changed to   1.00 by Control MC3
   06/01/1986: 22:17:13 Link 13 setting changed to   1.00 by Control MC1
   06/01/1986: 22:17:43 Link 4 setting changed to   0.00 by Control MC3
   06/02/1986: 01:58:43 Link 13 setting changed to   0.00 by Control MC1
   06/02/1986: 01:59:13 Link 4 setting changed to   1.00 by Control MC3
   06/02/1986: 02:02:13 Link 13 setting changed to   1.00 by Control MC1
   06/02/1986: 02:02:43 Link 4 setting changed to   0.00 by Control MC3
   06/02/1986: 07:25:13 Link 13 setting changed to   0.00 by Control MC1
   06/02/1986: 07:25:43 Link 4 setting changed to   1.00 by Control MC3
   06/02/1986: 13:09:43 Link 13 setting changed to   1.00 by Control MC1
   06/02/1986: 13:10:13 Link 4 setting changed to   0.00 by Control MC3
   06/02/1986: 20:52:43 Link 13 setting changed to   0.00 by Control MC1
   06/02/1986: 20:53:13 Link 4 setting changed to   1.00 by Control MC3
   06/04/1986: 17:13:43 Link 13 setting changed to   1.00 by Control MC1
   06/04/1986: 17:14:13 Link 4 setting changed to   0.00 by Control MC3
   06/04/1986: 21:18:43 Link 13 setting changed to   0.00 by Control MC1
   06/04/1986: 21:19:13 Link 4 setting changed to   1.00 by Control MC3
   06/09/1986: 01:17:43 Link 13 setting changed to   1.00 by Control MC1
   06/09/1986: 01:18:13 Link 4 setting changed to   0.00 by Control MC3
   06/09/1986: 04:58:43 Link 13 setting changed to   0.00 by Control MC1
   06/09/1986: 04:59:13 Link 4 setting changed to   1.00 by Control MC3
   06/09/1986: 12:12:13 Link 13 setting changed to   1.00 by Control MC1
   06/09/1986: 12:12:43 Link 4 setting changed to   0.00 by Control MC3
   06/09/1986: 16:17:13 Link 13 setting changed to   0.00 by Control MC1
   06/09/1986: 16:17:43 Link 4 setting changed to   1.00 by Control MC3
   06/10/1986: 12:08:13 Link 13 setting changed to   1.00 by Control MC1
   06/10/1986: 12:08:43 Link 4 setting changed to   0.00 by Control MC3
   06/10/1986: 14:04:13 Link 2 setting changed to   0.00 by Control Emergency
   06/10/1986: 15:07:13 Link 2 setting changed to   1.00 by Control NonEmergency
   06/10/1986: 19:39:43 Link 13 setting changed to   0.00 by Control MC1
   06/10/1986: 19:40:13 Link 4 setting changed to   1.00 by Control MC3
   06/11/1986: 05:22:43 Link 13 setting changed to   1.00 by Control MC1
   06/11/1986: 05:23:13 Link 4 setting changed to   0.00 by Control MC3
   06/11/1986: 08:27:13 Link 13 setting changed to   0.00 by Control MC1
   06/11/1986: 08:27:43 Link 4 setting changed to   1.00 by Control MC3
   06/11/1986: 17:37:43 Link 13 setting changed to   1.00 by Control MC1
   06/11/1986: 17:38:13 Link 4 setting changed to   0.00 by Control MC3
[...]
   11/18/1994: 04:37:55 Link 13 setting changed to   0.00 by Control MC1
   11/18/1994: 04:38:25 Link 4 setting changed to   1.00 by Control MC3
   11/18/1994: 08:27:55 Link 13 setting changed to   1.00 by Control MC1
   11/18/1994: 08:28:25 Link 4 setting changed to   0.00 by Control MC3
   11/18/1994: 10:46:55 Link 13 setting changed to   0.00 by Control MC1
   11/18/1994: 10:47:25 Link 4 setting changed to   1.00 by Control MC3
   11/18/1994: 16:19:55 Link 13 setting changed to   1.00 by Control MC1
   11/18/1994: 16:20:25 Link 4 setting changed to   0.00 by Control MC3
   11/18/1994: 19:33:55 Link 13 setting changed to   0.00 by Control MC1
   11/18/1994: 19:34:25 Link 4 setting changed to   1.00 by Control MC3
   11/18/1994: 20:37:55 Link 13 setting changed to   1.00 by Control MC1
   11/18/1994: 20:38:25 Link 4 setting changed to   0.00 by Control MC3
   11/19/1994: 00:41:25 Link 13 setting changed to   0.00 by Control MC1
   11/19/1994: 00:41:55 Link 4 setting changed to   1.00 by Control MC3
   11/19/1994: 23:53:55 Link 13 setting changed to   1.00 by Control MC1
   11/19/1994: 23:54:25 Link 4 setting changed to   0.00 by Control MC3
   11/20/1994: 00:18:25 Link 13 setting changed to   0.00 by Control MC1
   11/20/1994: 00:18:55 Link 4 setting changed to   1.00 by Control MC3
   11/21/1994: 00:41:25 Link 13 setting changed to   1.00 by Control MC1
   11/21/1994: 00:41:55 Link 4 setting changed to   0.00 by Control MC3
   11/21/1994: 02:24:55 Link 13 setting changed to   0.00 by Control MC1
   11/21/1994: 02:25:25 Link 4 setting changed to   1.00 by Control MC3
   11/22/1994: 04:14:25 Link 13 setting changed to   1.00 by Control MC1
   11/22/1994: 04:14:55 Link 4 setting changed to   0.00 by Control MC3
   11/22/1994: 08:14:55 Link 13 setting changed to   0.00 by Control MC1
   11/22/1994: 08:15:25 Link 4 setting changed to   1.00 by Control MC3
   11/25/1994: 03:25:25 Link 13 setting changed to   1.00 by Control MC1
   11/25/1994: 03:25:55 Link 4 setting changed to   0.00 by Control MC3
   11/25/1994: 05:35:55 Link 13 setting changed to   0.00 by Control MC1
   11/25/1994: 05:36:25 Link 4 setting changed to   1.00 by Control MC3
   11/25/1994: 07:16:55 Link 13 setting changed to   1.00 by Control MC1
   11/25/1994: 07:17:25 Link 4 setting changed to   0.00 by Control MC3
   11/25/1994: 16:25:55 Link 13 setting changed to   0.00 by Control MC1
   11/25/1994: 16:26:25 Link 4 setting changed to   1.00 by Control MC3
   11/25/1994: 17:16:55 Link 13 setting changed to   1.00 by Control MC1
   11/25/1994: 17:17:25 Link 4 setting changed to   0.00 by Control MC3
   11/25/1994: 19:35:55 Link 13 setting changed to   0.00 by Control MC1
   11/25/1994: 19:36:25 Link 4 setting changed to   1.00 by Control MC3
   11/25/1994: 21:48:25 Link 13 setting changed to   1.00 by Control MC1
   11/25/1994: 21:48:55 Link 4 setting changed to   0.00 by Control MC3
   11/25/1994: 22:31:25 Link 13 setting changed to   0.00 by Control MC1
   11/25/1994: 22:31:55 Link 4 setting changed to   1.00 by Control MC3
   11/26/1994: 00:59:25 Link 13 setting changed to   1.00 by Control MC1
   11/26/1994: 00:59:55 Link 4 setting changed to   0.00 by Control MC3
   11/26/1994: 01:16:25 Link 13 setting changed to   0.00 by Control MC1
   11/26/1994: 01:16:55 Link 4 setting changed to   1.00 by Control MC3
   11/26/1994: 03:36:25 Link 13 setting changed to   1.00 by Control MC1
   11/26/1994: 03:36:55 Link 4 setting changed to   0.00 by Control MC3
   11/26/1994: 05:01:25 Link 13 setting changed to   0.00 by Control MC1
   11/26/1994: 05:01:55 Link 4 setting changed to   1.00 by Control MC3
   11/26/1994: 07:19:25 Link 13 setting changed to   1.00 by Control MC1
   11/26/1994: 07:19:55 Link 4 setting changed to   0.00 by Control MC3
   11/26/1994: 16:28:25 Link 13 setting changed to   0.00 by Control MC1
   11/26/1994: 16:28:55 Link 4 setting changed to   1.00 by Control MC3
   11/26/1994: 18:10:25 Link 13 setting changed to   1.00 by Control MC1
   11/26/1994: 18:10:55 Link 4 setting changed to   0.00 by Control MC3
   11/26/1994: 22:07:55 Link 13 setting changed to   0.00 by Control MC1
   11/26/1994: 22:08:25 Link 4 setting changed to   1.00 by Control MC3
   12/05/1994: 05:35:55 Link 13 setting changed to   1.00 by Control MC1
   12/05/1994: 05:36:25 Link 4 setting changed to   0.00 by Control MC3
   12/05/1994: 11:57:25 Link 13 setting changed to   0.00 by Control MC1
   12/05/1994: 11:57:55 Link 4 setting changed to   1.00 by Control MC3
   12/05/1994: 15:52:25 Link 13 setting changed to   1.00 by Control MC1
   12/05/1994: 15:52:55 Link 4 setting changed to   0.00 by Control MC3
   12/05/1994: 16:29:25 Link 13 setting changed to   0.00 by Control MC1
   12/05/1994: 16:29:55 Link 4 setting changed to   1.00 by Control MC3
   12/05/1994: 22:06:55 Link 13 setting changed to   1.00 by Control MC1
   12/05/1994: 22:07:25 Link 4 setting changed to   0.00 by Control MC3
   12/06/1994: 00:40:25 Link 13 setting changed to   0.00 by Control MC1
   12/06/1994: 00:40:55 Link 4 setting changed to   1.00 by Control MC3
   12/06/1994: 23:53:55 Link 13 setting changed to   1.00 by Control MC1
   12/06/1994: 23:54:25 Link 4 setting changed to   0.00 by Control MC3
   12/07/1994: 00:35:55 Link 13 setting changed to   0.00 by Control MC1
   12/07/1994: 00:36:25 Link 4 setting changed to   1.00 by Control MC3
   12/08/1994: 07:31:25 Link 13 setting changed to   1.00 by Control MC1
   12/08/1994: 07:31:55 Link 4 setting changed to   0.00 by Control MC3
   12/08/1994: 09:12:55 Link 2 setting changed to   0.00 by Control Emergency
   12/08/1994: 11:28:36 Link 2 setting changed to   1.00 by Control NonEmergency
   12/08/1994: 15:21:36 Link 13 setting changed to   0.00 by Control MC1
   12/08/1994: 15:22:06 Link 4 setting changed to   1.00 by Control MC3
   12/11/1994: 09:58:06 Link 13 setting changed to   1.00 by Control MC1
   12/11/1994: 09:58:36 Link 4 setting changed to   0.00 by Control MC3
   12/11/1994: 11:56:36 Link 13 setting changed to   0.00 by Control MC1
   12/11/1994: 11:57:06 Link 4 setting changed to   1.00 by Control MC3
   12/11/1994: 15:44:36 Link 13 setting changed to   1.00 by Control MC1
   12/11/1994: 15:45:06 Link 4 setting changed to   0.00 by Control MC3
   12/11/1994: 16:42:06 Link 13 setting changed to   0.00 by Control MC1
   12/11/1994: 16:42:36 Link 4 setting changed to   1.00 by Control MC3
   12/11/1994: 19:27:36 Link 13 setting changed to   1.00 by Control MC1
   12/11/1994: 19:28:06 Link 4 setting changed to   0.00 by Control MC3
   12/11/1994: 22:20:06 Link 13 setting changed to   0.00 by Control MC1
   12/11/1994: 22:20:36 Link 4 setting changed to   1.00 by Control MC3
   12/12/1994: 01:50:36 Link 13 setting changed to   1.00 by Control MC1
   12/12/1994: 01:51:06 Link 4 setting changed to   0.00 by Control MC3
   12/12/1994: 02:31:06 Link 13 setting changed to   0.00 by Control MC1
   12/12/1994: 02:31:36 Link 4 setting changed to   1.00 by Control MC3
   12/12/1994: 11:46:06 Link 13 setting changed to   1.00 by Control MC1
   12/12/1994: 11:46:36 Link 4 setting changed to   0.00 by Control MC3
   12/12/1994: 14:23:36 Link 13 setting changed to   0.00 by Control MC1
   12/12/1994: 14:24:06 Link 4 setting changed to   1.00 by Control MC3
   12/13/1994: 00:18:36 Link 13 setting changed to   1.00 by Control MC1
   12/13/1994: 00:19:06 Link 4 setting changed to   0.00 by Control MC3
   12/14/1994: 02:24:36 Link 13 setting changed to   0.00 by Control MC1
   12/14/1994: 02:25:06 Link 4 setting changed to   1.00 by Control MC3
   12/14/1994: 05:10:36 Link 13 setting changed to   1.00 by Control MC1
   12/14/1994: 05:11:06 Link 4 setting changed to   0.00 by Control MC3
   12/14/1994: 13:59:06 Link 13 setting changed to   0.00 by Control MC1
   12/14/1994: 13:59:36 Link 4 setting changed to   1.00 by Control MC3
   12/14/1994: 15:17:36 Link 13 setting changed to   1.00 by Control MC1
   12/14/1994: 15:18:06 Link 4 setting changed to   0.00 by Control MC3
   12/14/1994: 17:56:06 Link 13 setting changed to   0.00 by Control MC1
   12/14/1994: 17:56:36 Link 4 setting changed to   1.00 by Control MC3
   12/14/1994: 18:10:06 Link 13 setting changed to   1.00 by Control MC1
   12/14/1994: 18:10:36 Link 4 setting changed to   0.00 by Control MC3
   12/14/1994: 20:21:36 Link 13 setting changed to   0.00 by Control MC1
   12/14/1994: 20:22:06 Link 4 setting changed to   1.00 by Control MC3
   12/14/1994: 21:28:36 Link 13 setting changed to   1.00 by Control MC1
   12/14/1994: 21:29:06 Link 4 setting changed to   0.00 by Control MC3
   12/15/1994: 02:05:36 Link 13 setting changed to   0.00 by Control MC1
   12/15/1994: 02:06:06 Link 4 setting changed to   1.00 by Control MC3

  
  **************************        Volume         Depth
  Runoff Quantity Continuity     hectare-m            mm
  **************************     ---------       -------
  Total Precipitation ......       319.338      6386.750
  Evaporation Loss .........         0.000         0.000
  Infiltration Loss ........         0.000         0.000
  Surface Runoff ...........       322.279      6445.571
  Final Storage ............         0.005         0.091
  Continuity Error (%) .....        -0.922
  
  
  **************************        Volume        Volume
  Flow Routing Continuity        hectare-m      10^6 ltr
  **************************     ---------     ---------
  Dry Weather Inflow .......       238.539      2385.412
  Wet Weather Inflow .......       322.278      3222.818
  Groundwater Inflow .......         0.000         0.000
  RDII Inflow ..............         0.000         0.000
  External Inflow ..........         0.000         0.000
  External Outflow .........       560.682      5606.877
  Flooding Loss ............         0.150         1.502
  Evaporation Loss .........         0.000         0.000
  Exfiltration Loss ........         0.000         0.000
  Initial Stored Volume ....         0.000         0.000
  Final Stored Volume ......         0.002         0.019
  Continuity Error (%) .....        -0.003
  
  
  ***************************
  Time-Step Critical Elements
  ***************************
  None
  
  
  ********************************
  Highest Flow Instability Indexes
  ********************************
  All links are stable.
  
  
  *********************************
  Most Frequent Nonconverging Nodes
  *********************************
  Convergence obtained at all time steps.
  
  
  *************************
  Routing Time Step Summary
  *************************
  Minimum Time Step           :     3.34 sec
  Average Time Step           :    30.00 sec
  Maximum Time Step           :    30.00 sec
  % of Time in Steady State   :     0.00
  Average Iterations per Step :     2.00
  % of Steps Not Converging   :     0.00
  Time Step Frequencies       :
     30.000 - 13.228 sec      :   100.00 %
     13.228 -  5.833 sec      :     0.00 %
      5.833 -  2.572 sec      :     0.00 %
      2.572 -  1.134 sec      :     0.00 %
      1.134 -  0.500 sec      :     0.00 %
  
  
  ***************************
  Subcatchment Runoff Summary
  ***************************
  
  ------------------------------------------------------------------------------------------------------------------------------
                            Total      Total      Total      Total     Imperv       Perv      Total       Total     Peak  Runoff
                           Precip      Runon       Evap      Infil     Runoff     Runoff     Runoff      Runoff   Runoff   Coeff
  Subcatchment                 mm         mm         mm         mm         mm         mm         mm    10^6 ltr      LPS
  ------------------------------------------------------------------------------------------------------------------------------
  30c                     6386.75       0.00       0.00       0.00    6445.57       0.00    6445.57     3222.80  1954.71   1.009
  
  
  ******************
  Node Depth Summary
  ******************
  
  ---------------------------------------------------------------------------------
                                 Average  Maximum  Maximum  Time of Max    Reported
                                   Depth    Depth      HGL   Occurrence   Max Depth
  Node                 Type       Meters   Meters   Meters  days hr:min      Meters
  ---------------------------------------------------------------------------------
  4                    JUNCTION     0.08     2.50   100.50    19  22:46        2.50
  1                    JUNCTION     0.14     1.19    98.19  1085  06:42        1.12
  WWTP                 OUTFALL      0.08     0.14    96.94    18  08:51        0.14
  Clarified            OUTFALL      0.00     0.00    94.00     0  00:00        0.00
  emergency            OUTFALL      0.00     0.00    94.00     0  00:00        0.00
  22                   STORAGE      0.33     3.79    97.29   339  12:34        3.79
  
  
  *******************
  Node Inflow Summary
  *******************
  
  -------------------------------------------------------------------------------------------------
                                  Maximum  Maximum                  Lateral       Total        Flow
                                  Lateral    Total  Time of Max      Inflow      Inflow     Balance
                                   Inflow   Inflow   Occurrence      Volume      Volume       Error
  Node                 Type           LPS      LPS  days hr:min    10^6 ltr    10^6 ltr     Percent
  -------------------------------------------------------------------------------------------------
  4                    JUNCTION   1962.27  1962.27   339  13:00    5.61e+03    5.61e+03      -0.031
  1                    JUNCTION      0.00  1543.09   164  08:00           0       6e+03       0.042
  WWTP                 OUTFALL       0.00    35.00    18  08:51           0    3.93e+03       0.000
  Clarified            OUTFALL       0.00   750.00    19  23:51           0    1.37e+03       0.000
  emergency            OUTFALL       0.00  1509.26   339  12:34           0         309       0.000
  22                   STORAGE       0.00  1685.61  1085  06:47           0    2.06e+03      -0.044
  
  
  **********************
  Node Surcharge Summary
  **********************
  
  Surcharging occurs when water rises above the top of the highest conduit.
  ---------------------------------------------------------------------
                                               Max. Height   Min. Depth
                                   Hours       Above Crown    Below Rim
  Node                 Type      Surcharged         Meters       Meters
  ---------------------------------------------------------------------
  4                    JUNCTION       21.32          1.500        0.000
  
  
  *********************
  Node Flooding Summary
  *********************
  
  Flooding refers to all water that overflows a node, whether it ponds or not.
  --------------------------------------------------------------------------
                                                             Total   Maximum
                                 Maximum   Time of Max       Flood    Ponded
                        Hours       Rate    Occurrence      Volume     Depth
  Node                 Flooded       LPS   days hr:min    10^6 ltr    Meters
  --------------------------------------------------------------------------
  4                       3.33    414.35    339  13:00       1.502     0.000
  
  
  **********************
  Storage Volume Summary
  **********************
  
  ------------------------------------------------------------------------------------------------
                         Average    Avg   Evap  Exfil     Maximum    Max    Time of Max    Maximum
                          Volume   Pcnt   Pcnt   Pcnt      Volume   Pcnt     Occurrence    Outflow
  Storage Unit           1000 mł   Full   Loss   Loss     1000 mł   Full    days hr:min        LPS
  ------------------------------------------------------------------------------------------------
  22                       0.033    4.7    0.0    0.0       0.379   54.1     339  12:34    1509.26
  
  
  ***********************
  Outfall Loading Summary
  ***********************
  
  -----------------------------------------------------------
                         Flow       Avg       Max       Total
                         Freq      Flow      Flow      Volume
  Outfall Node           Pcnt       LPS       LPS    10^6 ltr
  -----------------------------------------------------------
  WWTP                 100.00     12.46     35.00    3930.297
  Clarified              5.03     86.10    750.00    1367.247
  emergency              0.11    934.39   1509.26     309.308
  -----------------------------------------------------------
  System                35.05   1032.95   1544.26    5606.852
  
  
  ********************
  Link Flow Summary
  ********************
  
  -----------------------------------------------------------------------------
                                 Maximum  Time of Max   Maximum    Max/    Max/
                                  |Flow|   Occurrence   |Veloc|    Full    Full
  Link                 Type          LPS  days hr:min     m/sec    Flow   Depth
  -----------------------------------------------------------------------------
  3                    CONDUIT   1543.09   164  08:00      1.96    1.58    1.00
  9                    CONDUIT     35.00    18  08:51      0.77    0.81    0.74
  4                    PUMP        20.00    18  08:41              1.00
  13                   WEIR      1685.61  1085  06:47                      0.31
  2                    DUMMY      750.00    19  23:51
  Overflow             DUMMY     1509.26   339  12:34
  
  
  ***************************
  Flow Classification Summary
  ***************************
  
  -------------------------------------------------------------------------------------
                      Adjusted    ---------- Fraction of Time in Flow Class ---------- 
                       /Actual         Up    Down  Sub   Sup   Up    Down  Norm  Inlet 
  Conduit               Length    Dry  Dry   Dry   Crit  Crit  Crit  Crit  Ltd   Ctrl  
  -------------------------------------------------------------------------------------
  3                       1.00   0.00  0.00  0.00  1.00  0.00  0.00  0.00  1.00  0.00
  9                       1.00   0.00  0.00  0.00  1.00  0.00  0.00  0.00  0.00  0.00
  
  
  *************************
  Conduit Surcharge Summary
  *************************
  
  ----------------------------------------------------------------------------
                                                           Hours        Hours 
                         --------- Hours Full --------   Above Full   Capacity
  Conduit                Both Ends  Upstream  Dnstream   Normal Flow   Limited
  ----------------------------------------------------------------------------
  3                           3.89     21.29     15.48     38.78         3.89
  9                           0.01   6477.29      0.01      0.01         0.01
  
  
  ***************
  Pumping Summary
  ***************
  
  ---------------------------------------------------------------------------------------------------------
                                                  Min       Avg       Max     Total     Power    % Time Off
                        Percent   Number of      Flow      Flow      Flow    Volume     Usage    Pump Curve
  Pump                 Utilized   Start-Ups       LPS       LPS       LPS  10^6 ltr     Kw-hr    Low   High
  ---------------------------------------------------------------------------------------------------------
  4                        6.14        1710      0.00     19.98     20.00   387.137   2338.06    0.0    0.2
  

  Analysis begun on:  Fri Mar  6 14:31:42 2026
  Analysis ended on:  Fri Mar  6 14:32:04 2026
  Total elapsed time: 00:00:22