
  EPA STORM WATER MANAGEMENT MODEL - VERSION 5.2 (Build 5.2.4)
  ------------------------------------------------------------

        EXTRAN USER''S MANUAL EXAMPLE PROBLEM 21 - ISOL = 0 
        SIMULATION OF A PIPELINE WITH 8 CONDUIT LENGTHS 
  
  ****************
  Analysis Options
  ****************
  Flow Units ............... CFS
  Process Models:
    Rainfall/Runoff ........ NO
    RDII ................... NO
    Snowmelt ............... NO
    Groundwater ............ NO
    Flow Routing ........... YES
    Ponding Allowed ........ NO
    Water Quality .......... NO
  Flow Routing Method ...... DYNWAVE
  Surcharge Method ......... EXTRAN
  Starting Date ............ 01/01/1988 00:00:00
  Ending Date .............. 01/01/1988 04:00:00
  Antecedent Dry Days ...... 0.0
  Report Time Step ......... 00:01:00
  Routing Time Step ........ 6.00 sec
  Variable Time Step ....... YES
  Maximum Trials ........... 8
  Number of Threads ........ 1
  Head Tolerance ........... 0.005000 ft
  
  
  **************************        Volume        Volume
  Flow Routing Continuity        acre-feet      10^6 gal
  **************************     ---------     ---------
  Dry Weather Inflow .......         0.000         0.000
  Wet Weather Inflow .......         0.000         0.000
  Groundwater Inflow .......         0.000         0.000
  RDII Inflow ..............         0.000         0.000
  External Inflow ..........         4.408         1.436
  External Outflow .........         8.339         2.717
  Flooding Loss ............         0.000         0.000
  Evaporation Loss .........         0.000         0.000
  Exfiltration Loss ........         0.000         0.000
  Initial Stored Volume ....         4.863         1.585
  Final Stored Volume ......         0.515         0.168
  Continuity Error (%) .....         4.502
  
  
  *************************
  Highest Continuity Errors
  *************************
  Node 3 (-12.85%)
  Node 4 (-11.34%)
  Node 5 (-9.87%)
  Node 2 (-9.45%)
  Node 8 (-8.31%)
  
  
  ***************************
  Time-Step Critical Elements
  ***************************
  None
  
  
  ********************************
  Highest Flow Instability Indexes
  ********************************
  Link 2 (36)
  Link 7 (14)
  Link 1 (13)
  
  
  *********************************
  Most Frequent Nonconverging Nodes
  *********************************
  Convergence obtained at all time steps.
  
  
  *************************
  Routing Time Step Summary
  *************************
  Minimum Time Step           :     5.50 sec
  Average Time Step           :     6.00 sec
  Maximum Time Step           :     6.00 sec
  % of Time in Steady State   :     0.00
  Average Iterations per Step :     2.00
  % of Steps Not Converging   :     0.00
  Time Step Frequencies       :
      6.000 -  3.650 sec      :   100.00 %
      3.650 -  2.221 sec      :     0.00 %
      2.221 -  1.351 sec      :     0.00 %
      1.351 -  0.822 sec      :     0.00 %
      0.822 -  0.500 sec      :     0.00 %
  
  
  ******************
  Node Depth Summary
  ******************
  
  ---------------------------------------------------------------------------------
                                 Average  Maximum  Maximum  Time of Max    Reported
                                   Depth    Depth      HGL   Occurrence   Max Depth
  Node                 Type         Feet     Feet     Feet  days hr:min        Feet
  ---------------------------------------------------------------------------------
  1                    JUNCTION     0.72     3.14    53.14     0  00:40        3.14
  2                    JUNCTION     0.85     3.17    52.17     0  00:44        3.17
  3                    JUNCTION     1.00     2.96    47.96     0  00:55        2.96
  4                    JUNCTION     1.14     2.84    43.84     0  01:07        2.84
  5                    JUNCTION     1.28     2.71    39.71     0  01:18        2.71
  6                    JUNCTION     1.40     2.60    35.60     0  01:27        2.60
  7                    JUNCTION     1.40     2.60    34.60     0  01:35        2.59
  8                    JUNCTION     1.81     2.64    28.64     0  01:52        2.64
  9                    OUTFALL      1.26     1.85    21.85     0  01:53        1.85
  
  
  *******************
  Node Inflow Summary
  *******************
  
  -------------------------------------------------------------------------------------------------
                                  Maximum  Maximum                  Lateral       Total        Flow
                                  Lateral    Total  Time of Max      Inflow      Inflow     Balance
                                   Inflow   Inflow   Occurrence      Volume      Volume       Error
  Node                 Type           CFS      CFS  days hr:min    10^6 gal    10^6 gal     Percent
  -------------------------------------------------------------------------------------------------
  1                    JUNCTION     79.98    79.98     0  00:40        1.44        1.44      -1.956
  2                    JUNCTION      0.00    78.89     0  00:41           0        1.46      -8.630
  3                    JUNCTION      0.00    74.03     0  00:47           0         1.6     -11.390
  4                    JUNCTION      0.00    67.14     0  00:59           0        1.81     -10.182
  5                    JUNCTION      0.00    62.60     0  01:10           0        2.01      -8.987
  6                    JUNCTION      0.00    58.73     0  01:21           0        2.21      -5.088
  7                    JUNCTION      0.00    56.98     0  01:27           0        2.33      -7.045
  8                    JUNCTION      0.00    54.79     0  01:39           0        2.51      -7.676
  9                    OUTFALL       0.00    48.87     0  01:53           0        2.72       0.000
  
  
  **********************
  Node Surcharge Summary
  **********************
  
  No nodes were surcharged.
  
  
  *********************
  Node Flooding Summary
  *********************
  
  No nodes were flooded.
  
  
  ***********************
  Outfall Loading Summary
  ***********************
  
  -----------------------------------------------------------
                         Flow       Avg       Max       Total
                         Freq      Flow      Flow      Volume
  Outfall Node           Pcnt       CFS       CFS    10^6 gal
  -----------------------------------------------------------
  9                    100.00     25.22     48.87       2.717
  -----------------------------------------------------------
  System               100.00     25.22     48.87       2.717
  
  
  ********************
  Link Flow Summary
  ********************
  
  -----------------------------------------------------------------------------
                                 Maximum  Time of Max   Maximum    Max/    Max/
                                  |Flow|   Occurrence   |Veloc|    Full    Full
  Link                 Type          CFS  days hr:min    ft/sec    Flow   Depth
  -----------------------------------------------------------------------------
  1                    CONDUIT     78.89     0  00:41      5.34    0.54    0.52
  2                    CONDUIT     74.03     0  00:47      5.42    0.51    0.49
  3                    CONDUIT     67.14     0  00:59      5.22    0.46    0.47
  4                    CONDUIT     62.60     0  01:10      5.10    0.43    0.45
  5                    CONDUIT     58.73     0  01:21      4.94    0.40    0.44
  6                    CONDUIT     56.98     0  01:27      5.14    0.39    0.43
  7                    CONDUIT     54.79     0  01:39      4.81    0.38    0.42
  8                    CONDUIT     48.87     0  01:53      5.05    0.34    0.37
  
  
  ***************************
  Flow Classification Summary
  ***************************
  
  -------------------------------------------------------------------------------------
                      Adjusted    ---------- Fraction of Time in Flow Class ---------- 
                       /Actual         Up    Down  Sub   Sup   Up    Down  Norm  Inlet 
  Conduit               Length    Dry  Dry   Dry   Crit  Crit  Crit  Crit  Ltd   Ctrl  
  -------------------------------------------------------------------------------------
  1                       1.00   0.00  0.07  0.00  0.93  0.00  0.00  0.00  0.60  0.00
  2                       1.00   0.00  0.00  0.00  1.00  0.00  0.00  0.00  0.12  0.00
  3                       1.00   0.00  0.00  0.00  1.00  0.00  0.00  0.00  0.00  0.00
  4                       1.00   0.00  0.00  0.00  1.00  0.00  0.00  0.00  0.00  0.00
  5                       1.00   0.00  0.00  0.00  1.00  0.00  0.00  0.00  0.00  0.00
  6                       1.00   0.00  0.00  0.00  1.00  0.00  0.00  0.00  0.00  0.00
  7                       1.00   0.00  0.00  0.00  1.00  0.00  0.00  0.00  0.05  0.00
  8                       1.00   0.00  0.00  0.00  1.00  0.00  0.00  0.00  0.00  0.00
  
  
  *************************
  Conduit Surcharge Summary
  *************************
  
  No conduits were surcharged.
  

  Analysis begun on:  Fri Mar  6 14:32:05 2026
  Analysis ended on:  Fri Mar  6 14:32:05 2026
  Total elapsed time: < 1 sec