
  EPA STORM WATER MANAGEMENT MODEL - VERSION 5.2 (Build 5.2.4)
  ------------------------------------------------------------

  EXTRAN EXAMPLE # 60 - SYSTEM WITH TWO LEVELS OF SURCHARGE 
  SCHEME 1 AS IN KASSEM THESIS WITH TRAPEZOIDAL INFLOW BY A. Y. 
  
  ****************
  Analysis Options
  ****************
  Flow Units ............... CFS
  Process Models:
    Rainfall/Runoff ........ NO
    RDII ................... NO
    Snowmelt ............... NO
    Groundwater ............ NO
    Flow Routing ........... YES
    Ponding Allowed ........ NO
    Water Quality .......... NO
  Flow Routing Method ...... DYNWAVE
  Surcharge Method ......... EXTRAN
  Starting Date ............ 01/01/1988 00:00:00
  Ending Date .............. 01/01/1988 04:00:00
  Antecedent Dry Days ...... 0.0
  Report Time Step ......... 00:00:10
  Routing Time Step ........ 1.00 sec
  Variable Time Step ....... YES
  Maximum Trials ........... 8
  Number of Threads ........ 1
  Head Tolerance ........... 0.005000 ft
  
  
  **************************        Volume        Volume
  Flow Routing Continuity        acre-feet      10^6 gal
  **************************     ---------     ---------
  Dry Weather Inflow .......         0.000         0.000
  Wet Weather Inflow .......         0.000         0.000
  Groundwater Inflow .......         0.000         0.000
  RDII Inflow ..............         0.000         0.000
  External Inflow ..........        20.275         6.607
  External Outflow .........        18.323         5.971
  Flooding Loss ............         0.004         0.001
  Evaporation Loss .........         0.000         0.000
  Exfiltration Loss ........         0.000         0.000
  Initial Stored Volume ....         0.000         0.000
  Final Stored Volume ......         1.977         0.644
  Continuity Error (%) .....        -0.143
  
  
  *************************
  Highest Continuity Errors
  *************************
  Node 6 (1.57%)
  Node 5 (1.43%)
  Node 4 (1.28%)
  Node 7 (1.17%)
  Node 3 (1.12%)
  
  
  ***************************
  Time-Step Critical Elements
  ***************************
  None
  
  
  ********************************
  Highest Flow Instability Indexes
  ********************************
  All links are stable.
  
  
  *********************************
  Most Frequent Nonconverging Nodes
  *********************************
  Node 13 (9.55%)
  Node 1 (7.49%)
  Node 2 (7.42%)
  Node 3 (6.74%)
  Node 4 (6.03%)
  
  
  *************************
  Routing Time Step Summary
  *************************
  Minimum Time Step           :     0.51 sec
  Average Time Step           :     1.00 sec
  Maximum Time Step           :     1.00 sec
  % of Time in Steady State   :     0.00
  Average Iterations per Step :     2.80
  % of Steps Not Converging   :     9.55
  Time Step Frequencies       :
      1.000 -  0.871 sec      :    99.99 %
      0.871 -  0.758 sec      :     0.00 %
      0.758 -  0.660 sec      :     0.00 %
      0.660 -  0.574 sec      :     0.00 %
      0.574 -  0.500 sec      :     0.01 %
  
  
  ******************
  Node Depth Summary
  ******************
  
  ---------------------------------------------------------------------------------
                                 Average  Maximum  Maximum  Time of Max    Reported
                                   Depth    Depth      HGL   Occurrence   Max Depth
  Node                 Type         Feet     Feet     Feet  days hr:min        Feet
  ---------------------------------------------------------------------------------
  1                    JUNCTION    29.44   132.02   250.02     0  00:48      131.74
  2                    JUNCTION    29.72   131.43   248.93     0  00:48      131.09
  3                    JUNCTION    29.99   129.91   246.91     0  00:48      129.44
  4                    JUNCTION    30.28   127.52   244.02     0  00:48      126.91
  5                    JUNCTION    30.58   124.34   240.34     0  00:48      123.58
  6                    JUNCTION    30.88   120.46   235.96     0  00:48      119.60
  7                    JUNCTION    31.21   116.00   231.00     0  00:48      115.11
  8                    JUNCTION    26.76    86.00   200.00     0  00:48       86.00
  9                    JUNCTION    21.84    74.22   187.72     0  00:48       68.95
  10                   JUNCTION    16.93    58.61   171.61     0  00:48       51.92
  11                   JUNCTION    12.02    40.24   152.74     0  00:48       35.08
  12                   JUNCTION     7.12    20.44   132.44     0  00:48       19.17
  13                   OUTFALL      2.11     2.95   114.45     0  00:48        2.95
  
  
  *******************
  Node Inflow Summary
  *******************
  
  -------------------------------------------------------------------------------------------------
                                  Maximum  Maximum                  Lateral       Total        Flow
                                  Lateral    Total  Time of Max      Inflow      Inflow     Balance
                                   Inflow   Inflow   Occurrence      Volume      Volume       Error
  Node                 Type           CFS      CFS  days hr:min    10^6 gal    10^6 gal     Percent
  -------------------------------------------------------------------------------------------------
  1                    JUNCTION    108.00   108.00     0  00:55        6.61        6.61       0.367
  2                    JUNCTION      0.00   108.02     0  00:55           0        6.58       0.965
  3                    JUNCTION      0.00   108.03     0  00:55           0        6.52       1.130
  4                    JUNCTION      0.00   108.05     0  00:55           0        6.45       1.296
  5                    JUNCTION      0.00   108.07     0  00:55           0        6.36       1.453
  6                    JUNCTION      0.00   110.38     0  00:48           0        6.27       1.598
  7                    JUNCTION      0.00   112.84     0  00:48           0        6.17       1.182
  8                    JUNCTION      0.00   114.09     0  00:48           0         6.1       0.434
  9                    JUNCTION      0.00   108.11     0  00:55           0        6.07       0.431
  10                   JUNCTION      0.00   108.12     0  00:55           0        6.05       0.433
  11                   JUNCTION      0.00   108.12     0  00:55           0        6.02       0.436
  12                   JUNCTION      0.00   108.12     0  00:55           0           6       0.428
  13                   OUTFALL       0.00   108.12     0  00:55           0        5.97       0.000
  
  
  **********************
  Node Surcharge Summary
  **********************
  
  Surcharging occurs when water rises above the top of the highest conduit.
  ---------------------------------------------------------------------
                                               Max. Height   Min. Depth
                                   Hours       Above Crown    Below Rim
  Node                 Type      Surcharged           Feet         Feet
  ---------------------------------------------------------------------
  1                    JUNCTION        2.00        126.019       49.981
  2                    JUNCTION        2.05        125.434       51.566
  3                    JUNCTION        2.13        123.910       53.090
  4                    JUNCTION        2.23        121.523       56.477
  5                    JUNCTION        2.41        118.342       59.658
  6                    JUNCTION        2.70        114.457       64.543
  7                    JUNCTION        3.15        110.000       69.000
  8                    JUNCTION        3.56         83.050        0.000
  9                    JUNCTION        3.52         71.269       12.781
  10                   JUNCTION        3.47         55.659       28.391
  11                   JUNCTION        3.40         37.295       47.755
  12                   JUNCTION        2.81         17.486       67.564
  
  
  *********************
  Node Flooding Summary
  *********************
  
  Flooding refers to all water that overflows a node, whether it ponds or not.
  --------------------------------------------------------------------------
                                                             Total   Maximum
                                 Maximum   Time of Max       Flood    Ponded
                        Hours       Rate    Occurrence      Volume     Depth
  Node                 Flooded       CFS   days hr:min    10^6 gal      Feet
  --------------------------------------------------------------------------
  8                       0.01     23.57      0  00:48       0.001     0.000
  
  
  ***********************
  Outfall Loading Summary
  ***********************
  
  -----------------------------------------------------------
                         Flow       Avg       Max       Total
                         Freq      Flow      Flow      Volume
  Outfall Node           Pcnt       CFS       CFS    10^6 gal
  -----------------------------------------------------------
  13                    92.56     59.88    108.12       5.970
  -----------------------------------------------------------
  System                92.56     59.88    108.12       5.970
  
  
  ********************
  Link Flow Summary
  ********************
  
  -----------------------------------------------------------------------------
                                 Maximum  Time of Max   Maximum    Max/    Max/
                                  |Flow|   Occurrence   |Veloc|    Full    Full
  Link                 Type          CFS  days hr:min    ft/sec    Flow   Depth
  -----------------------------------------------------------------------------
  101                  CONDUIT    108.02     0  00:55      6.97    0.81    1.00
  102                  CONDUIT    108.03     0  00:55      5.87    0.81    1.00
  103                  CONDUIT    108.05     0  00:55      5.31    0.81    1.00
  104                  CONDUIT    108.07     0  00:55      4.95    0.81    1.00
  105                  CONDUIT    110.38     0  00:48      4.71    0.82    1.00
  106                  CONDUIT    112.84     0  00:48      4.37    0.84    1.00
  107                  CONDUIT    114.09     0  00:48     16.69    4.00    1.00
  108                  CONDUIT    108.11     0  00:55     15.82    5.36    1.00
  109                  CONDUIT    108.12     0  00:55     15.82    5.36    1.00
  110                  CONDUIT    108.12     0  00:55     15.82    5.36    1.00
  111                  CONDUIT    108.12     0  00:55     15.82    5.36    1.00
  112                  CONDUIT    108.12     0  00:55     15.82    5.36    1.00
  
  
  ***************************
  Flow Classification Summary
  ***************************
  
  -------------------------------------------------------------------------------------
                      Adjusted    ---------- Fraction of Time in Flow Class ---------- 
                       /Actual         Up    Down  Sub   Sup   Up    Down  Norm  Inlet 
  Conduit               Length    Dry  Dry   Dry   Crit  Crit  Crit  Crit  Ltd   Ctrl  
  -------------------------------------------------------------------------------------
  101                     1.00   0.00  0.00  0.00  0.99  0.01  0.00  0.00  0.00  0.00
  102                     1.00   0.00  0.00  0.00  0.99  0.01  0.00  0.00  0.00  0.00
  103                     1.00   0.00  0.00  0.00  0.99  0.01  0.00  0.00  0.00  0.00
  104                     1.00   0.00  0.00  0.00  0.99  0.01  0.00  0.00  0.00  0.00
  105                     1.00   0.00  0.00  0.00  0.99  0.01  0.00  0.00  0.00  0.00
  106                     1.00   0.01  0.00  0.00  0.99  0.00  0.00  0.00  0.00  0.00
  107                     1.00   0.01  0.00  0.00  0.98  0.01  0.00  0.00  0.00  0.00
  108                     1.00   0.02  0.00  0.00  0.98  0.00  0.00  0.00  0.00  0.00
  109                     1.00   0.03  0.00  0.00  0.97  0.00  0.00  0.00  0.00  0.00
  110                     1.00   0.04  0.00  0.00  0.96  0.00  0.00  0.00  0.00  0.00
  111                     1.00   0.05  0.00  0.00  0.95  0.00  0.00  0.00  0.00  0.00
  112                     1.00   0.06  0.00  0.00  0.94  0.00  0.00  0.00  0.00  0.00
  
  
  *************************
  Conduit Surcharge Summary
  *************************
  
  ----------------------------------------------------------------------------
                                                           Hours        Hours 
                         --------- Hours Full --------   Above Full   Capacity
  Conduit                Both Ends  Upstream  Dnstream   Normal Flow   Limited
  ----------------------------------------------------------------------------
  101                         2.00      2.00      2.05      0.01         0.01
  102                         2.05      2.05      2.13      0.01         0.01
  103                         2.13      2.13      2.23      0.01         0.01
  104                         2.23      2.23      2.41      0.01         0.01
  105                         2.41      2.41      2.70      0.01         0.01
  106                         2.70      2.70      3.15      0.01         0.01
  107                         3.54      3.54      3.56      3.40         3.41
  108                         3.52      3.56      3.52      3.71         3.52
  109                         3.47      3.52      3.47      3.67         3.47
  110                         3.40      3.47      3.40      3.63         3.40
  111                         2.81      3.40      2.81      3.58         2.81
  112                         1.04      2.81      1.04      3.55         1.04
  

  Analysis begun on:  Fri Mar  6 14:32:05 2026
  Analysis ended on:  Fri Mar  6 14:32:05 2026
  Total elapsed time: < 1 sec