
  EPA STORM WATER MANAGEMENT MODEL - VERSION 5.2 (Build 5.2.4)
  ------------------------------------------------------------

  WARNING 04: minimum elevation drop used for Conduit c3000
  
  *************
  Element Count
  *************
  Number of rain gages ...... 0
  Number of subcatchments ... 0
  Number of nodes ........... 8
  Number of links ........... 7
  Number of pollutants ...... 0
  Number of land uses ....... 0
  
  
  ************
  Node Summary
  ************
                                           Invert      Max.    Ponded    External
  Name                 Type                 Elev.     Depth      Area    Inflow  
  -------------------------------------------------------------------------------
  n1000                JUNCTION           5000.00     20.00       0.0    Yes
  n1001                JUNCTION           4999.50     20.50       0.0
  n1002                JUNCTION           4999.40     20.60       0.0
  n1003                JUNCTION           4999.30     20.70       0.0
  n1004                JUNCTION           4998.80     21.20       0.0
  n1005                OUTFALL            4998.70     20.00       0.0
  n2000                OUTFALL            5010.00      0.00       0.0
  s3000                STORAGE            4999.40     20.60       0.0
  
  
  ************
  Link Summary
  ************
  Name             From Node        To Node          Type            Length    %Slope Roughness
  ---------------------------------------------------------------------------------------------
  c1000            n1000            n1001            CONDUIT         5000.0    0.0100    0.0150
  c1001            n1001            n1002            CONDUIT         1000.0    0.0100    0.0150
  c1002            n1002            n1003            CONDUIT         1000.0    0.0100    0.0150
  c1003            n1003            n1004            CONDUIT         5000.0    0.0080    0.0150
  c1004            n1004            n1005            CONDUIT         1000.0    0.0100    0.0150
  c3000            n1002            s3000            CONDUIT          100.0    0.0010    0.0150
  PUMP1at3000-2000 s3000            n2000            TYPE1 PUMP  
  
  
  *********************
  Cross Section Summary
  *********************
                                        Full     Full     Hyd.     Max.   No. of     Full
  Conduit          Shape               Depth     Area     Rad.    Width  Barrels     Flow
  ---------------------------------------------------------------------------------------
  c1000            TRAPEZOIDAL         20.00   200.00     4.00    10.00        1   499.26
  c1001            TRAPEZOIDAL         20.00   200.00     4.00    10.00        1   499.26
  c1002            TRAPEZOIDAL         20.00   200.00     4.00    10.00        1   499.26
  c1003            TRAPEZOIDAL         20.00   200.00     4.00    10.00        1   446.56
  c1004            TRAPEZOIDAL         20.00   200.00     4.00    10.00        1   499.26
  c3000            CIRCULAR            10.00    78.54     2.50    10.00        1    45.32
  
  
  ****************
  Analysis Options
  ****************
  Flow Units ............... CFS
  Process Models:
    Rainfall/Runoff ........ NO
    RDII ................... NO
    Snowmelt ............... NO
    Groundwater ............ NO
    Flow Routing ........... YES
    Ponding Allowed ........ NO
    Water Quality .......... NO
  Flow Routing Method ...... DYNWAVE
  Surcharge Method ......... EXTRAN
  Starting Date ............ 01/01/1988 00:00:00
  Ending Date .............. 01/01/1988 02:30:00
  Antecedent Dry Days ...... 0.0
  Report Time Step ......... 00:00:30
  Routing Time Step ........ 30.00 sec
  Variable Time Step ....... YES
  Maximum Trials ........... 8
  Number of Threads ........ 1
  Head Tolerance ........... 0.005000 ft
  
  
  **************************        Volume        Volume
  Flow Routing Continuity        acre-feet      10^6 gal
  **************************     ---------     ---------
  Dry Weather Inflow .......        30.990        10.098
  Wet Weather Inflow .......         0.000         0.000
  Groundwater Inflow .......         0.000         0.000
  RDII Inflow ..............         0.000         0.000
  External Inflow ..........         0.000         0.000
  External Outflow .........        25.889         8.436
  Flooding Loss ............         0.000         0.000
  Evaporation Loss .........         0.003         0.001
  Exfiltration Loss ........         0.000         0.000
  Initial Stored Volume ....        22.886         7.458
  Final Stored Volume ......        13.968         4.552
  Continuity Error (%) .....        26.017
  
  
  *************************
  Highest Continuity Errors
  *************************
  Node n1003 (5.04%)
  Node n1001 (4.99%)
  Node s3000 (1.95%)
  Node n1002 (1.73%)
  
  
  ***************************
  Time-Step Critical Elements
  ***************************
  Link c3000 (90.52%)
  
  
  ********************************
  Highest Flow Instability Indexes
  ********************************
  Link c3000 (84)
  Link PUMP1at3000-2000 (51)
  Link c1002 (35)
  Link c1001 (34)
  
  
  *********************************
  Most Frequent Nonconverging Nodes
  *********************************
  Node n1005 (46.10%)
  Node n2000 (46.10%)
  Node s3000 (46.10%)
  Node n1002 (0.30%)
  
  
  *************************
  Routing Time Step Summary
  *************************
  Minimum Time Step           :     2.95 sec
  Average Time Step           :     8.88 sec
  Maximum Time Step           :    30.00 sec
  % of Time in Steady State   :     0.00
  Average Iterations per Step :     5.86
  % of Steps Not Converging   :    46.10
  Time Step Frequencies       :
     30.000 - 13.228 sec      :    10.47 %
     13.228 -  5.833 sec      :    81.72 %
      5.833 -  2.572 sec      :     7.81 %
      2.572 -  1.134 sec      :     0.00 %
      1.134 -  0.500 sec      :     0.00 %
  
  
  ******************
  Node Depth Summary
  ******************
  
  ---------------------------------------------------------------------------------
                                 Average  Maximum  Maximum  Time of Max    Reported
                                   Depth    Depth      HGL   Occurrence   Max Depth
  Node                 Type         Feet     Feet     Feet  days hr:min        Feet
  ---------------------------------------------------------------------------------
  n1000                JUNCTION     5.63     5.75  5005.75     0  01:50        5.75
  n1001                JUNCTION     4.98     5.16  5004.66     0  01:42        5.16
  n1002                JUNCTION     4.80     5.00  5004.40     0  01:43        5.00
  n1003                JUNCTION     4.67     4.86  5004.16     0  01:45        4.86
  n1004                JUNCTION     3.26     3.40  5002.20     0  01:47        3.40
  n1005                OUTFALL      1.66     1.75  5000.45     0  01:47        1.75
  n2000                OUTFALL      0.00     0.00  5010.00     0  00:00        0.00
  s3000                STORAGE      4.81     5.08  5004.48     0  01:02        5.06
  
  
  *******************
  Node Inflow Summary
  *******************
  
  -------------------------------------------------------------------------------------------------
                                  Maximum  Maximum                  Lateral       Total        Flow
                                  Lateral    Total  Time of Max      Inflow      Inflow     Balance
                                   Inflow   Inflow   Occurrence      Volume      Volume       Error
  Node                 Type           CFS      CFS  days hr:min    10^6 gal    10^6 gal     Percent
  -------------------------------------------------------------------------------------------------
  n1000                JUNCTION    150.00   150.00     0  00:00        10.1        10.1       5.358
  n1001                JUNCTION      0.00   150.25     0  01:55           0        9.65       5.250
  n1002                JUNCTION      0.00   151.44     0  02:26           0        9.22       1.761
  n1003                JUNCTION      0.00   135.71     0  00:54           0        8.24       5.302
  n1004                JUNCTION      0.00   132.91     0  01:45           0        7.79       0.993
  n1005                OUTFALL       0.00   132.76     0  01:47           0        7.72       0.000
  n2000                OUTFALL       0.00    50.00     0  00:00           0        0.72       0.000
  s3000                STORAGE       0.00    58.48     0  01:02           0       0.777       1.991
  
  
  **********************
  Node Surcharge Summary
  **********************
  
  No nodes were surcharged.
  
  
  *********************
  Node Flooding Summary
  *********************
  
  No nodes were flooded.
  
  
  **********************
  Storage Volume Summary
  **********************
  
  ------------------------------------------------------------------------------------------------
                         Average    Avg   Evap  Exfil     Maximum    Max    Time of Max    Maximum
                          Volume   Pcnt   Pcnt   Pcnt      Volume   Pcnt     Occurrence    Outflow
  Storage Unit          1000 ftł   Full   Loss   Loss    1000 ftł   Full    days hr:min        CFS
  ------------------------------------------------------------------------------------------------
  s3000                    2.884   23.3    0.0    0.0       3.045   24.6       0  01:02      57.11
  
  
  ***********************
  Outfall Loading Summary
  ***********************
  
  -----------------------------------------------------------
                         Flow       Avg       Max       Total
                         Freq      Flow      Flow      Volume
  Outfall Node           Pcnt       CFS       CFS    10^6 gal
  -----------------------------------------------------------
  n1005                100.00    123.55    132.76       7.715
  n2000                100.00     13.62     50.00       0.720
  -----------------------------------------------------------
  System               100.00    137.17    182.76       8.436
  
  
  ********************
  Link Flow Summary
  ********************
  
  -----------------------------------------------------------------------------
                                 Maximum  Time of Max   Maximum    Max/    Max/
                                  |Flow|   Occurrence   |Veloc|    Full    Full
  Link                 Type          CFS  days hr:min    ft/sec    Flow   Depth
  -----------------------------------------------------------------------------
  c1000                CONDUIT    150.25     0  01:55      3.20    0.30    0.27
  c1001                CONDUIT    151.44     0  02:26      3.94    0.30    0.25
  c1002                CONDUIT    135.71     0  00:54      3.13    0.27    0.25
  c1003                CONDUIT    132.91     0  01:45      3.26    0.30    0.20
  c1004                CONDUIT    132.76     0  01:47      5.16    0.27    0.13
  c3000                CONDUIT     58.48     0  01:02      2.87    1.29    0.50
  PUMP1at3000-2000     PUMP        50.00     0  00:00              0.50
  
  
  ***************************
  Flow Classification Summary
  ***************************
  
  -------------------------------------------------------------------------------------
                      Adjusted    ---------- Fraction of Time in Flow Class ---------- 
                       /Actual         Up    Down  Sub   Sup   Up    Down  Norm  Inlet 
  Conduit               Length    Dry  Dry   Dry   Crit  Crit  Crit  Crit  Ltd   Ctrl  
  -------------------------------------------------------------------------------------
  c1000                   1.00   0.00  0.00  0.00  1.00  0.00  0.00  0.00  0.00  0.00
  c1001                   1.00   0.00  0.00  0.00  1.00  0.00  0.00  0.00  0.00  0.00
  c1002                   1.00   0.00  0.00  0.00  1.00  0.00  0.00  0.00  0.00  0.00
  c1003                   1.00   0.00  0.00  0.00  1.00  0.00  0.00  0.00  0.00  0.00
  c1004                   1.00   0.00  0.00  0.00  1.00  0.00  0.00  0.00  0.00  0.00
  c3000                   1.00   0.00  0.00  0.00  1.00  0.00  0.00  0.00  0.02  0.00
  
  
  *************************
  Conduit Surcharge Summary
  *************************
  
  ----------------------------------------------------------------------------
                                                           Hours        Hours 
                         --------- Hours Full --------   Above Full   Capacity
  Conduit                Both Ends  Upstream  Dnstream   Normal Flow   Limited
  ----------------------------------------------------------------------------
  c3000                       0.01      0.01      0.01      0.03         0.01
  
  
  ***************
  Pumping Summary
  ***************
  
  ---------------------------------------------------------------------------------------------------------
                                                  Min       Avg       Max     Total     Power    % Time Off
                        Percent   Number of      Flow      Flow      Flow    Volume     Usage    Pump Curve
  Pump                 Utilized   Start-Ups       CFS       CFS       CFS  10^6 gal     Kw-hr    Low   High
  ---------------------------------------------------------------------------------------------------------
  PUMP1at3000-2000       100.00           1      0.00     13.62     50.00     0.684     12.17    0.0   81.3
  

  Analysis begun on:  Fri Mar  6 14:32:04 2026
  Analysis ended on:  Fri Mar  6 14:32:04 2026
  Total elapsed time: < 1 sec