
  EPA STORM WATER MANAGEMENT MODEL - VERSION 5.2 (Build 5.2.4)
  ------------------------------------------------------------

   EXTRAN USER''S MANUAL EXAMPLE PROBLEM 80 ISOL = 1 SOLUTION 
   Flow thru a constricting pipe in the center 
  
  ****************
  Analysis Options
  ****************
  Flow Units ............... CFS
  Process Models:
    Rainfall/Runoff ........ NO
    RDII ................... NO
    Snowmelt ............... NO
    Groundwater ............ NO
    Flow Routing ........... YES
    Ponding Allowed ........ NO
    Water Quality .......... NO
  Flow Routing Method ...... DYNWAVE
  Surcharge Method ......... EXTRAN
  Starting Date ............ 01/01/1988 00:00:00
  Ending Date .............. 01/01/1988 06:00:00
  Antecedent Dry Days ...... 0.0
  Report Time Step ......... 00:01:00
  Routing Time Step ........ 1.00 sec
  Variable Time Step ....... YES
  Maximum Trials ........... 8
  Number of Threads ........ 1
  Head Tolerance ........... 0.001000 ft
  
  
  **************************        Volume        Volume
  Flow Routing Continuity        acre-feet      10^6 gal
  **************************     ---------     ---------
  Dry Weather Inflow .......         0.000         0.000
  Wet Weather Inflow .......         0.000         0.000
  Groundwater Inflow .......         0.000         0.000
  RDII Inflow ..............         0.000         0.000
  External Inflow ..........        14.462         4.713
  External Outflow .........        12.330         4.018
  Flooding Loss ............         0.000         0.000
  Evaporation Loss .........         0.000         0.000
  Exfiltration Loss ........         0.000         0.000
  Initial Stored Volume ....         0.000         0.000
  Final Stored Volume ......         2.130         0.694
  Continuity Error (%) .....         0.014
  
  
  *************************
  Highest Continuity Errors
  *************************
  Node 4 (4.15%)
  Node 2 (4.10%)
  Node 3 (3.28%)
  Node 5 (1.60%)
  
  
  ***************************
  Time-Step Critical Elements
  ***************************
  None
  
  
  ********************************
  Highest Flow Instability Indexes
  ********************************
  All links are stable.
  
  
  *********************************
  Most Frequent Nonconverging Nodes
  *********************************
  Convergence obtained at all time steps.
  
  
  *************************
  Routing Time Step Summary
  *************************
  Minimum Time Step           :     1.00 sec
  Average Time Step           :     1.00 sec
  Maximum Time Step           :     1.00 sec
  % of Time in Steady State   :     0.00
  Average Iterations per Step :     2.00
  % of Steps Not Converging   :     0.00
  Time Step Frequencies       :
      1.000 -  0.251 sec      :   100.00 %
      0.251 -  0.063 sec      :     0.00 %
      0.063 -  0.016 sec      :     0.00 %
      0.016 -  0.004 sec      :     0.00 %
      0.004 -  0.001 sec      :     0.00 %
  
  
  ******************
  Node Depth Summary
  ******************
  
  ---------------------------------------------------------------------------------
                                 Average  Maximum  Maximum  Time of Max    Reported
                                   Depth    Depth      HGL   Occurrence   Max Depth
  Node                 Type         Feet     Feet     Feet  days hr:min        Feet
  ---------------------------------------------------------------------------------
  1                    JUNCTION     8.19    12.42   187.42     0  03:17       12.42
  3                    JUNCTION     4.79     6.71   180.71     0  03:48        6.71
  5                    JUNCTION     2.03     2.43   175.43     0  03:51        2.43
  6                    OUTFALL      1.01     1.24   173.74     0  03:51        1.24
  2                    STORAGE      8.63    12.91   187.41     0  03:16       12.91
  4                    STORAGE      5.19     7.20   180.70     0  03:48        7.20
  
  
  *******************
  Node Inflow Summary
  *******************
  
  -------------------------------------------------------------------------------------------------
                                  Maximum  Maximum                  Lateral       Total        Flow
                                  Lateral    Total  Time of Max      Inflow      Inflow     Balance
                                   Inflow   Inflow   Occurrence      Volume      Volume       Error
  Node                 Type           CFS      CFS  days hr:min    10^6 gal    10^6 gal     Percent
  -------------------------------------------------------------------------------------------------
  1                    JUNCTION     40.00    40.00     0  00:15        4.71        4.71       2.580
  3                    JUNCTION      0.00    36.41     0  03:09           0        4.41       3.393
  5                    JUNCTION      0.00    33.26     0  03:48           0        4.08       1.629
  6                    OUTFALL       0.00    33.25     0  03:51           0        4.02       0.000
  2                    STORAGE       0.00    38.60     0  03:00           0        4.59       4.276
  4                    STORAGE       0.00    34.33     0  03:19           0        4.26       4.333
  
  
  **********************
  Node Surcharge Summary
  **********************
  
  Surcharging occurs when water rises above the top of the highest conduit.
  ---------------------------------------------------------------------
                                               Max. Height   Min. Depth
                                   Hours       Above Crown    Below Rim
  Node                 Type      Surcharged           Feet         Feet
  ---------------------------------------------------------------------
  1                    JUNCTION        0.63          0.417       52.583
  
  
  *********************
  Node Flooding Summary
  *********************
  
  No nodes were flooded.
  
  
  **********************
  Storage Volume Summary
  **********************
  
  ------------------------------------------------------------------------------------------------
                         Average    Avg   Evap  Exfil     Maximum    Max    Time of Max    Maximum
                          Volume   Pcnt   Pcnt   Pcnt      Volume   Pcnt     Occurrence    Outflow
  Storage Unit          1000 ftģ   Full   Loss   Loss    1000 ftģ   Full    days hr:min        CFS
  ------------------------------------------------------------------------------------------------
  2                        0.104   13.2    0.0    0.0       0.155   19.7       0  03:16      36.41
  4                        0.062   11.7    0.0    0.0       0.086   16.2       0  03:48      33.26
  
  
  ***********************
  Outfall Loading Summary
  ***********************
  
  -----------------------------------------------------------
                         Flow       Avg       Max       Total
                         Freq      Flow      Flow      Volume
  Outfall Node           Pcnt       CFS       CFS    10^6 gal
  -----------------------------------------------------------
  6                     94.61     26.28     33.25       4.018
  -----------------------------------------------------------
  System                94.61     26.28     33.25       4.018
  
  
  ********************
  Link Flow Summary
  ********************
  
  -----------------------------------------------------------------------------
                                 Maximum  Time of Max   Maximum    Max/    Max/
                                  |Flow|   Occurrence   |Veloc|    Full    Full
  Link                 Type          CFS  days hr:min    ft/sec    Flow   Depth
  -----------------------------------------------------------------------------
  1                    CONDUIT     38.60     0  03:00      2.67    0.10    1.00
  2                    CONDUIT     36.41     0  03:09      5.15    3.76    1.00
  3                    CONDUIT     34.33     0  03:19      2.25    0.09    0.58
  4                    CONDUIT     33.26     0  03:48      4.95    3.43    0.90
  5                    CONDUIT     33.25     0  03:51      3.04    0.09    0.15
  
  
  ***************************
  Flow Classification Summary
  ***************************
  
  -------------------------------------------------------------------------------------
                      Adjusted    ---------- Fraction of Time in Flow Class ---------- 
                       /Actual         Up    Down  Sub   Sup   Up    Down  Norm  Inlet 
  Conduit               Length    Dry  Dry   Dry   Crit  Crit  Crit  Crit  Ltd   Ctrl  
  -------------------------------------------------------------------------------------
  1                       1.00   0.00  0.00  0.00  1.00  0.00  0.00  0.00  0.00  0.00
  2                       1.00   0.00  0.00  0.00  1.00  0.00  0.00  0.00  0.00  0.00
  3                       1.00   0.00  0.00  0.00  1.00  0.00  0.00  0.00  0.00  0.00
  4                       1.00   0.01  0.00  0.00  0.99  0.00  0.00  0.00  0.00  0.00
  5                       1.00   0.02  0.00  0.00  0.98  0.00  0.00  0.00  0.00  0.00
  
  
  *************************
  Conduit Surcharge Summary
  *************************
  
  ----------------------------------------------------------------------------
                                                           Hours        Hours 
                         --------- Hours Full --------   Above Full   Capacity
  Conduit                Both Ends  Upstream  Dnstream   Normal Flow   Limited
  ----------------------------------------------------------------------------
  1                           0.63      0.63      1.00      0.01         0.01
  2                           5.08      5.69      5.08      5.73         5.08
  4                           0.01      5.25      0.01      5.44         0.01
  

  Analysis begun on:  Fri Mar  6 14:32:05 2026
  Analysis ended on:  Fri Mar  6 14:32:05 2026
  Total elapsed time: < 1 sec