
  EPA STORM WATER MANAGEMENT MODEL - VERSION 5.2 (Build 5.2.4)
  ------------------------------------------------------------

   SW 1 0 20A1 'EXTRAN USER''S MANUAL EXAMPLE 1'A1 'baseline extran model from 
  
  ERROR 361: could not open external file used for Time Series INFLOWat82309.

  Analysis begun on:  Fri Mar  6 14:32:05 2026
  Analysis ended on:  Fri Mar  6 14:32:05 2026
  Total elapsed time: < 1 sec