
  EPA STORM WATER MANAGEMENT MODEL - VERSION 5.2 (Build 5.2.4)
  ------------------------------------------------------------

                                                                                                                                                                                                                                                                                                                                                                           Extran with flat 2 foot circular conduits  ;  SWMM CRADA Example ; 
  WARNING 04: minimum elevation drop used for Conduit pipe1
  WARNING 04: minimum elevation drop used for Conduit pipe2
  WARNING 04: minimum elevation drop used for Conduit pipe3
  WARNING 04: minimum elevation drop used for Conduit pipe4
  WARNING 04: minimum elevation drop used for Conduit pipe5
  WARNING 04: minimum elevation drop used for Conduit pipe6
  WARNING 04: minimum elevation drop used for Conduit pipe7
  WARNING 04: minimum elevation drop used for Conduit pipe8
  WARNING 04: minimum elevation drop used for Conduit pipe9
  WARNING 04: minimum elevation drop used for Conduit outlet
  
  ****************
  Analysis Options
  ****************
  Flow Units ............... CFS
  Process Models:
    Rainfall/Runoff ........ NO
    RDII ................... NO
    Snowmelt ............... NO
    Groundwater ............ NO
    Flow Routing ........... YES
    Ponding Allowed ........ NO
    Water Quality .......... NO
  Flow Routing Method ...... DYNWAVE
  Surcharge Method ......... EXTRAN
  Starting Date ............ 02/02/2002 00:00:00
  Ending Date .............. 02/02/2002 05:00:00
  Antecedent Dry Days ...... 0.0
  Report Time Step ......... 00:00:30
  Routing Time Step ........ 30.00 sec
  Variable Time Step ....... YES
  Maximum Trials ........... 8
  Number of Threads ........ 1
  Head Tolerance ........... 0.005000 ft
  
  
  **************************        Volume        Volume
  Flow Routing Continuity        acre-feet      10^6 gal
  **************************     ---------     ---------
  Dry Weather Inflow .......         0.000         0.000
  Wet Weather Inflow .......         0.000         0.000
  Groundwater Inflow .......         0.000         0.000
  RDII Inflow ..............         0.000         0.000
  External Inflow ..........        24.788         8.078
  External Outflow .........        24.785         8.076
  Flooding Loss ............         0.000         0.000
  Evaporation Loss .........         0.000         0.000
  Exfiltration Loss ........         0.000         0.000
  Initial Stored Volume ....         0.000         0.000
  Final Stored Volume ......         0.002         0.001
  Continuity Error (%) .....         0.004
  
  
  ***************************
  Time-Step Critical Elements
  ***************************
  Link pipe8 (84.92%)
  Link outlet (3.48%)
  Link pipe1 (3.12%)
  Link pipe9 (2.17%)
  Link pipe7 (1.58%)
  
  
  ********************************
  Highest Flow Instability Indexes
  ********************************
  Link pipe3 (1)
  Link pipe1 (1)
  Link pipe4 (1)
  Link pipe2 (1)
  Link pipe5 (1)
  
  
  *********************************
  Most Frequent Nonconverging Nodes
  *********************************
  Node Outlet (1.10%)
  Node Inflow (0.97%)
  Node mid1 (0.86%)
  Node mid2 (0.68%)
  Node mid3 (0.47%)
  
  
  *************************
  Routing Time Step Summary
  *************************
  Minimum Time Step           :     0.50 sec
  Average Time Step           :     2.54 sec
  Maximum Time Step           :    30.00 sec
  % of Time in Steady State   :     0.00
  Average Iterations per Step :     2.12
  % of Steps Not Converging   :     1.10
  Time Step Frequencies       :
     30.000 - 13.228 sec      :     3.33 %
     13.228 -  5.833 sec      :     1.78 %
      5.833 -  2.572 sec      :     3.78 %
      2.572 -  1.134 sec      :    88.64 %
      1.134 -  0.500 sec      :     2.47 %
  
  
  ******************
  Node Depth Summary
  ******************
  
  ---------------------------------------------------------------------------------
                                 Average  Maximum  Maximum  Time of Max    Reported
                                   Depth    Depth      HGL   Occurrence   Max Depth
  Node                 Type         Feet     Feet     Feet  days hr:min        Feet
  ---------------------------------------------------------------------------------
  Inflow               JUNCTION     6.06     6.93    16.93     0  00:15        6.91
  mid1                 JUNCTION     5.75     6.56    16.56     0  00:15        6.53
  mid2                 JUNCTION     5.44     6.19    16.19     0  00:15        6.16
  mid3                 JUNCTION     5.13     5.81    15.81     0  00:15        5.79
  mid4                 JUNCTION     4.82     5.43    15.43     0  00:15        5.41
  mid5                 JUNCTION     4.51     5.06    15.06     0  00:15        5.03
  mid6                 JUNCTION     4.20     4.66    14.66     0  00:15        4.65
  mid7                 JUNCTION     3.88     4.29    14.29     0  00:15        4.26
  mid8                 JUNCTION     3.57     3.93    13.93     0  00:15        3.89
  mid9                 JUNCTION     3.19     3.49    13.49     0  00:15        3.47
  Outlet               OUTFALL      2.79     3.04    13.04     0  00:15        3.04
  
  
  *******************
  Node Inflow Summary
  *******************
  
  -------------------------------------------------------------------------------------------------
                                  Maximum  Maximum                  Lateral       Total        Flow
                                  Lateral    Total  Time of Max      Inflow      Inflow     Balance
                                   Inflow   Inflow   Occurrence      Volume      Volume       Error
  Node                 Type           CFS      CFS  days hr:min    10^6 gal    10^6 gal     Percent
  -------------------------------------------------------------------------------------------------
  Inflow               JUNCTION    100.00   100.00     0  00:15        8.08        8.08      -0.001
  mid1                 JUNCTION      0.00   100.07     0  00:15           0        8.08       0.002
  mid2                 JUNCTION      0.00   100.16     0  00:15           0        8.08       0.002
  mid3                 JUNCTION      0.00   100.24     0  00:15           0        8.08       0.002
  mid4                 JUNCTION      0.00   100.31     0  00:15           0        8.08       0.002
  mid5                 JUNCTION      0.00   100.37     0  00:15           0        8.08       0.002
  mid6                 JUNCTION      0.00   100.45     0  00:15           0        8.08       0.002
  mid7                 JUNCTION      0.00   100.55     0  00:15           0        8.08       0.001
  mid8                 JUNCTION      0.00   100.69     0  00:15           0        8.08       0.001
  mid9                 JUNCTION      0.00   100.69     0  00:15           0        8.08       0.001
  Outlet               OUTFALL       0.00   100.76     0  00:15           0        8.08       0.000
  
  
  **********************
  Node Surcharge Summary
  **********************
  
  Surcharging occurs when water rises above the top of the highest conduit.
  ---------------------------------------------------------------------
                                               Max. Height   Min. Depth
                                   Hours       Above Crown    Below Rim
  Node                 Type      Surcharged           Feet         Feet
  ---------------------------------------------------------------------
  Inflow               JUNCTION        2.95          2.928        3.072
  mid1                 JUNCTION        2.94          2.561        3.439
  mid2                 JUNCTION        2.92          2.191        3.809
  mid3                 JUNCTION        2.91          1.811        4.189
  mid4                 JUNCTION        2.89          1.435        4.565
  mid5                 JUNCTION        2.86          1.058        4.942
  mid6                 JUNCTION        2.83          0.665        5.335
  mid7                 JUNCTION        2.79          0.290        5.710
  
  
  *********************
  Node Flooding Summary
  *********************
  
  No nodes were flooded.
  
  
  ***********************
  Outfall Loading Summary
  ***********************
  
  -----------------------------------------------------------
                         Flow       Avg       Max       Total
                         Freq      Flow      Flow      Volume
  Outfall Node           Pcnt       CFS       CFS    10^6 gal
  -----------------------------------------------------------
  Outlet                99.39     90.98    100.76       8.076
  -----------------------------------------------------------
  System                99.39     90.98    100.76       8.076
  
  
  ********************
  Link Flow Summary
  ********************
  
  -----------------------------------------------------------------------------
                                 Maximum  Time of Max   Maximum    Max/    Max/
                                  |Flow|   Occurrence   |Veloc|    Full    Full
  Link                 Type          CFS  days hr:min    ft/sec    Flow   Depth
  -----------------------------------------------------------------------------
  pipe1                CONDUIT    100.07     0  00:15      7.96   18.64    1.00
  pipe2                CONDUIT    100.16     0  00:15      7.97   18.66    1.00
  pipe3                CONDUIT    100.24     0  00:15      7.98   18.67    1.00
  pipe4                CONDUIT    100.31     0  00:15      7.98   18.69    1.00
  pipe5                CONDUIT    100.37     0  00:15      7.99   18.70    1.00
  pipe6                CONDUIT    100.45     0  00:15      7.99   18.71    1.00
  pipe7                CONDUIT    100.55     0  00:15      8.00   18.73    1.00
  pipe8                CONDUIT    100.69     0  00:15      8.03   18.76    0.99
  pipe9                CONDUIT    100.69     0  00:15      8.34   18.76    0.93
  outlet               CONDUIT    100.76     0  00:15      9.21   18.77    0.82
  
  
  ***************************
  Flow Classification Summary
  ***************************
  
  -------------------------------------------------------------------------------------
                      Adjusted    ---------- Fraction of Time in Flow Class ---------- 
                       /Actual         Up    Down  Sub   Sup   Up    Down  Norm  Inlet 
  Conduit               Length    Dry  Dry   Dry   Crit  Crit  Crit  Crit  Ltd   Ctrl  
  -------------------------------------------------------------------------------------
  pipe1                   1.00   0.00  0.00  0.00  1.00  0.00  0.00  0.00  0.00  0.00
  pipe2                   1.00   0.00  0.00  0.00  1.00  0.00  0.00  0.00  0.01  0.00
  pipe3                   1.00   0.00  0.00  0.00  1.00  0.00  0.00  0.00  0.02  0.00
  pipe4                   1.00   0.00  0.00  0.00  1.00  0.00  0.00  0.00  0.01  0.00
  pipe5                   1.00   0.00  0.00  0.00  0.99  0.00  0.00  0.00  0.01  0.00
  pipe6                   1.00   0.01  0.00  0.00  0.99  0.00  0.00  0.00  0.00  0.00
  pipe7                   1.00   0.01  0.00  0.00  0.99  0.00  0.00  0.00  0.00  0.00
  pipe8                   1.00   0.01  0.00  0.00  0.99  0.00  0.00  0.00  0.00  0.00
  pipe9                   1.00   0.01  0.00  0.00  0.99  0.00  0.00  0.00  0.00  0.00
  outlet                  1.00   0.01  0.00  0.00  0.99  0.00  0.00  0.00  0.00  0.00
  
  
  *************************
  Conduit Surcharge Summary
  *************************
  
  ----------------------------------------------------------------------------
                                                           Hours        Hours 
                         --------- Hours Full --------   Above Full   Capacity
  Conduit                Both Ends  Upstream  Dnstream   Normal Flow   Limited
  ----------------------------------------------------------------------------
  pipe1                       2.94      2.95      2.94      3.22         2.94
  pipe2                       2.92      2.94      2.92      3.22         2.92
  pipe3                       2.91      2.92      2.91      3.21         2.91
  pipe4                       2.89      2.91      2.89      3.22         2.89
  pipe5                       2.86      2.89      2.86      3.22         2.86
  pipe6                       2.83      2.86      2.83      3.23         2.83
  pipe7                       2.79      2.83      2.79      3.23         2.79
  pipe8                       0.01      2.79      0.01      3.23         0.01
  pipe9                       0.01      0.01      0.01      3.23         0.01
  outlet                      0.01      0.01      0.01      3.23         0.01
  

  Analysis begun on:  Fri Mar  6 14:32:18 2026
  Analysis ended on:  Fri Mar  6 14:32:18 2026
  Total elapsed time: < 1 sec