
  EPA STORM WATER MANAGEMENT MODEL - VERSION 5.2 (Build 5.2.4)
  ------------------------------------------------------------

  WARNING 04: minimum elevation drop used for Conduit 1
  WARNING 05: minimum slope used for Conduit 1
  WARNING 05: minimum slope used for Conduit 4
  WARNING 04: minimum elevation drop used for Conduit 5
  WARNING 05: minimum slope used for Conduit 5
  WARNING 05: minimum slope used for Conduit 8
  WARNING 04: minimum elevation drop used for Conduit 9
  WARNING 05: minimum slope used for Conduit 9
  WARNING 05: minimum slope used for Conduit 11
  WARNING 05: minimum slope used for Conduit 12
  
  *************
  Element Count
  *************
  Number of rain gages ...... 0
  Number of subcatchments ... 0
  Number of nodes ........... 15
  Number of links ........... 12
  Number of pollutants ...... 0
  Number of land uses ....... 0
  
  
  ************
  Node Summary
  ************
                                           Invert      Max.    Ponded    External
  Name                 Type                 Elev.     Depth      Area    Inflow  
  -------------------------------------------------------------------------------
  1                    JUNCTION              0.76    200.00       0.0    Yes
  2                    JUNCTION              0.76    200.00       0.0
  3                    JUNCTION             -2.25    200.00       0.0
  4                    JUNCTION            -10.65    100.00       0.0
  6                    JUNCTION              0.76    200.00       0.0    Yes
  7                    JUNCTION              0.76    200.00       0.0
  8                    JUNCTION             -2.25    200.00       0.0
  9                    JUNCTION            -10.65    200.00       0.0
  11                   JUNCTION              0.76    300.00       0.0    Yes
  12                   JUNCTION              0.76    300.00       0.0
  13                   JUNCTION             -2.25    300.00       0.0
  14                   JUNCTION             -2.35    200.00       0.0
  5                    OUTFALL             -10.71      1.50       0.0
  10                   OUTFALL             -10.71      1.50       0.0
  15                   OUTFALL              -2.45      0.83       0.0
  
  
  ************
  Link Summary
  ************
  Name             From Node        To Node          Type            Length    %Slope Roughness
  ---------------------------------------------------------------------------------------------
  1                1                2                CONDUIT          100.0    0.1000    0.0100
  2                2                3                CONDUIT          100.0    3.0074    0.0100
  3                3                4                CONDUIT         3637.0    0.2310    0.0100
  4                4                5                CONDUIT          177.9    0.1000    0.0130
  5                6                7                CONDUIT          100.0    0.1000    0.0146
  6                7                8                CONDUIT          100.0    3.0074    0.0146
  7                8                9                CONDUIT         3637.0    0.2310    0.0146
  8                9                10               CONDUIT          177.9    0.1000    0.0130
  9                11               12               CONDUIT          100.0    0.1000    0.0100
  10               12               13               CONDUIT          100.0    3.0074    0.0100
  11               13               14               CONDUIT         3637.0    0.1000    0.0100
  12               14               15               CONDUIT         3637.0    0.1000    0.0100
  
  
  *********************
  Cross Section Summary
  *********************
                                        Full     Full     Hyd.     Max.   No. of     Full
  Conduit          Shape               Depth     Area     Rad.    Width  Barrels     Flow
  ---------------------------------------------------------------------------------------
  1                FORCE_MAIN           0.50     0.20     0.12     0.50        1    90.32
  2                FORCE_MAIN           0.67     0.35     0.17     0.67        1  1053.61
  3                FORCE_MAIN           0.83     0.55     0.21     0.83        1   523.62
  4                CIRCULAR             1.50     1.77     0.38     1.50        1  1490.91
  5                CIRCULAR             0.50     0.20     0.12     0.50        1    70.91
  6                CIRCULAR             0.67     0.35     0.17     0.67        1   837.50
  7                CIRCULAR             0.83     0.55     0.21     0.83        1   420.83
  8                CIRCULAR             1.50     1.77     0.38     1.50        1  1490.91
  9                FORCE_MAIN           0.50     0.20     0.12     0.50        1    90.32
  10               FORCE_MAIN           0.67     0.35     0.17     0.67        1  1053.61
  11               FORCE_MAIN           0.83     0.55     0.21     0.83        1   344.53
  12               FORCE_MAIN           0.83     0.55     0.21     0.83        1   344.53
  
  
  ****************
  Analysis Options
  ****************
  Flow Units ............... GPM
  Process Models:
    Rainfall/Runoff ........ NO
    RDII ................... NO
    Snowmelt ............... NO
    Groundwater ............ NO
    Flow Routing ........... YES
    Ponding Allowed ........ NO
    Water Quality .......... NO
  Flow Routing Method ...... DYNWAVE
  Surcharge Method ......... EXTRAN
  Starting Date ............ 09/25/2013 00:00:00
  Ending Date .............. 09/26/2013 06:00:00
  Antecedent Dry Days ...... 0.0
  Report Time Step ......... 00:01:00
  Routing Time Step ........ 10.00 sec
  Variable Time Step ....... YES
  Maximum Trials ........... 8
  Number of Threads ........ 1
  Head Tolerance ........... 0.005000 ft
  
  
  **************************        Volume        Volume
  Flow Routing Continuity        acre-feet      10^6 gal
  **************************     ---------     ---------
  Dry Weather Inflow .......         0.000         0.000
  Wet Weather Inflow .......         0.000         0.000
  Groundwater Inflow .......         0.000         0.000
  RDII Inflow ..............         0.000         0.000
  External Inflow ..........        26.037         8.485
  External Outflow .........        25.845         8.422
  Flooding Loss ............         0.000         0.000
  Evaporation Loss .........         0.000         0.000
  Exfiltration Loss ........         0.000         0.000
  Initial Stored Volume ....         0.023         0.007
  Final Stored Volume ......         0.195         0.064
  Continuity Error (%) .....         0.074
  
  
  ***************************
  Time-Step Critical Elements
  ***************************
  None
  
  
  ********************************
  Highest Flow Instability Indexes
  ********************************
  All links are stable.
  
  
  *********************************
  Most Frequent Nonconverging Nodes
  *********************************
  Node 5 (1.50%)
  Node 10 (1.50%)
  Node 15 (1.50%)
  Node 11 (1.43%)
  Node 12 (1.33%)
  
  
  *************************
  Routing Time Step Summary
  *************************
  Minimum Time Step           :     0.35 sec
  Average Time Step           :     9.96 sec
  Maximum Time Step           :    10.00 sec
  % of Time in Steady State   :     0.00
  Average Iterations per Step :     2.09
  % of Steps Not Converging   :     1.50
  Time Step Frequencies       :
     10.000 -  5.493 sec      :    99.35 %
      5.493 -  3.017 sec      :     0.56 %
      3.017 -  1.657 sec      :     0.06 %
      1.657 -  0.910 sec      :     0.01 %
      0.910 -  0.500 sec      :     0.02 %
  
  
  ******************
  Node Depth Summary
  ******************
  
  ---------------------------------------------------------------------------------
                                 Average  Maximum  Maximum  Time of Max    Reported
                                   Depth    Depth      HGL   Occurrence   Max Depth
  Node                 Type         Feet     Feet     Feet  days hr:min        Feet
  ---------------------------------------------------------------------------------
  1                    JUNCTION   117.64   135.65   136.40     0  00:08      135.45
  2                    JUNCTION    82.35   100.33   101.09     0  00:08      100.02
  3                    JUNCTION    77.68    95.71    93.46     0  00:08       95.25
  4                    JUNCTION     1.16     1.17    -9.48     0  01:55        1.17
  6                    JUNCTION   165.50   192.71   193.47     0  00:08      192.58
  7                    JUNCTION   116.51   143.69   144.44     0  00:08      143.43
  8                    JUNCTION   108.92   136.12   133.87     0  00:08      135.75
  9                    JUNCTION     1.16     1.17    -9.48     0  02:00        1.17
  11                   JUNCTION   231.38   233.15   233.90     1  06:00      233.15
  12                   JUNCTION   196.10   197.85   198.60     1  06:00      197.85
  13                   JUNCTION   191.43   193.20   190.95     1  06:00      193.20
  14                   JUNCTION   106.69   124.55   122.20     0  00:11      107.82
  5                    OUTFALL      0.71     0.71    -9.99     0  01:56        0.71
  10                   OUTFALL      0.71     0.71    -9.99     0  02:01        0.71
  15                   OUTFALL     22.45    22.45    20.00     0  00:00       22.45
  
  
  *******************
  Node Inflow Summary
  *******************
  
  -------------------------------------------------------------------------------------------------
                                  Maximum  Maximum                  Lateral       Total        Flow
                                  Lateral    Total  Time of Max      Inflow      Inflow     Balance
                                   Inflow   Inflow   Occurrence      Volume      Volume       Error
  Node                 Type           GPM      GPM  days hr:min    10^6 gal    10^6 gal     Percent
  -------------------------------------------------------------------------------------------------
  1                    JUNCTION   1570.00  1570.00     0  00:00        2.83        2.83       0.012
  2                    JUNCTION      0.00  1581.90     0  00:11           0        2.83       0.022
  3                    JUNCTION      0.00  1615.14     0  00:11           0        2.82       0.283
  4                    JUNCTION      0.00  1642.08     0  00:11           0        2.82       0.351
  6                    JUNCTION   1570.00  1570.00     0  00:00        2.83        2.83       0.012
  7                    JUNCTION      0.00  1581.58     0  00:11           0        2.83       0.024
  8                    JUNCTION      0.00  1615.70     0  00:11           0        2.82       0.286
  9                    JUNCTION      0.00  1643.78     0  00:11           0        2.82       0.351
  11                   JUNCTION   1570.00  1570.00     0  00:00        2.83        2.83       0.018
  12                   JUNCTION      0.00  1583.10     0  00:11           0        2.83       0.043
  13                   JUNCTION      0.00  1618.91     0  00:10           0        2.82       0.298
  14                   JUNCTION      0.00  2516.57     0  00:10           0        2.82       0.524
  5                    OUTFALL       0.00  1570.00     0  01:56           0        2.81       0.000
  10                   OUTFALL       0.00  1570.00     0  02:01           0        2.81       0.000
  15                   OUTFALL       0.00  1570.00     1  06:00           0        2.81       0.000
  
  
  **********************
  Node Surcharge Summary
  **********************
  
  Surcharging occurs when water rises above the top of the highest conduit.
  ---------------------------------------------------------------------
                                               Max. Height   Min. Depth
                                   Hours       Above Crown    Below Rim
  Node                 Type      Surcharged           Feet         Feet
  ---------------------------------------------------------------------
  1                    JUNCTION       30.00        135.148       64.352
  2                    JUNCTION       29.99         99.666       99.667
  3                    JUNCTION       29.90         94.872      104.295
  6                    JUNCTION       30.00        192.213        7.287
  7                    JUNCTION       29.99        143.021       56.313
  8                    JUNCTION       29.91        135.291       63.875
  11                   JUNCTION       30.00        232.646       66.854
  12                   JUNCTION       29.99        197.181      102.153
  13                   JUNCTION       29.91        192.362      106.805
  14                   JUNCTION       29.82        123.721       75.446
  
  
  *********************
  Node Flooding Summary
  *********************
  
  No nodes were flooded.
  
  
  ***********************
  Outfall Loading Summary
  ***********************
  
  -----------------------------------------------------------
                         Flow       Avg       Max       Total
                         Freq      Flow      Flow      Volume
  Outfall Node           Pcnt       GPM       GPM    10^6 gal
  -----------------------------------------------------------
  5                     99.52   1560.80   1570.00       2.807
  10                    99.47   1561.43   1570.00       2.807
  15                   100.00   1558.80   1570.00       2.814
  -----------------------------------------------------------
  System                99.66   4681.03   4710.00       8.428
  
  
  ********************
  Link Flow Summary
  ********************
  
  -----------------------------------------------------------------------------
                                 Maximum  Time of Max   Maximum    Max/    Max/
                                  |Flow|   Occurrence   |Veloc|    Full    Full
  Link                 Type          GPM  days hr:min    ft/sec    Flow   Depth
  -----------------------------------------------------------------------------
  1                    CONDUIT   1581.90     0  00:11     19.55   17.51    1.00
  2                    CONDUIT   1615.14     0  00:11     17.85    1.53    1.00
  3                    CONDUIT   1642.08     0  00:11      8.08    3.14    1.00
  4                    CONDUIT   1570.00     0  01:56      3.00    1.05    0.63
  5                    CONDUIT   1581.58     0  00:11     19.32   22.30    1.00
  6                    CONDUIT   1615.70     0  00:11     17.87    1.93    1.00
  7                    CONDUIT   1643.78     0  00:11      8.16    3.91    1.00
  8                    CONDUIT   1570.00     0  02:01      3.00    1.05    0.63
  9                    CONDUIT   1583.10     0  00:11     19.56   17.53    1.00
  10                   CONDUIT   1618.91     0  00:10     17.66    1.54    1.00
  11                   CONDUIT   1648.90     0  00:10      8.17    4.79    1.00
  12                   CONDUIT   1570.00     1  06:00      6.41    4.56    1.00
  
  
  ***************************
  Flow Classification Summary
  ***************************
  
  -------------------------------------------------------------------------------------
                      Adjusted    ---------- Fraction of Time in Flow Class ---------- 
                       /Actual         Up    Down  Sub   Sup   Up    Down  Norm  Inlet 
  Conduit               Length    Dry  Dry   Dry   Crit  Crit  Crit  Crit  Ltd   Ctrl  
  -------------------------------------------------------------------------------------
  1                       1.00   0.00  0.00  0.00  1.00  0.00  0.00  0.00  0.00  0.00
  2                       1.00   0.00  0.00  0.00  1.00  0.00  0.00  0.00  0.00  0.00
  3                       1.00   0.00  0.00  0.00  1.00  0.00  0.00  0.00  0.00  0.00
  4                       1.00   0.00  0.00  0.00  1.00  0.00  0.00  0.00  0.00  0.00
  5                       1.00   0.00  0.00  0.00  1.00  0.00  0.00  0.00  0.00  0.00
  6                       1.00   0.00  0.00  0.00  1.00  0.00  0.00  0.00  0.00  0.00
  7                       1.00   0.00  0.00  0.00  1.00  0.00  0.00  0.00  0.00  0.00
  8                       1.00   0.00  0.00  0.00  1.00  0.00  0.00  0.00  0.00  0.00
  9                       1.00   0.00  0.00  0.00  1.00  0.00  0.00  0.00  0.00  0.00
  10                      1.00   0.00  0.00  0.00  1.00  0.00  0.00  0.00  0.00  0.00
  11                      1.00   0.00  0.00  0.00  1.00  0.00  0.00  0.00  0.00  0.00
  12                      1.00   0.00  0.00  0.00  1.00  0.00  0.00  0.00  0.00  0.00
  
  
  *************************
  Conduit Surcharge Summary
  *************************
  
  ----------------------------------------------------------------------------
                                                           Hours        Hours 
                         --------- Hours Full --------   Above Full   Capacity
  Conduit                Both Ends  Upstream  Dnstream   Normal Flow   Limited
  ----------------------------------------------------------------------------
  1                          30.00     30.00     30.00     30.00        30.00
  2                          29.92     29.99     29.92     29.99        29.92
  3                          29.81     29.90     29.81     29.90        29.81
  4                           0.01      0.01      0.01     29.72         0.01
  5                          30.00     30.00     30.00     30.00        30.00
  6                          29.92     29.99     29.92     29.99        29.92
  7                          29.80     29.91     29.80     29.90        29.80
  8                           0.01      0.01      0.01     29.71         0.01
  9                          30.00     30.00     30.00     30.00        30.00
  10                         29.93     29.99     29.93     29.99        29.92
  11                         29.82     29.91     29.82     29.91        29.81
  12                         29.82     29.82     30.00     29.99        29.82
  

  Analysis begun on:  Fri Mar  6 14:32:33 2026
  Analysis ended on:  Fri Mar  6 14:32:33 2026
  Total elapsed time: < 1 sec