
  EPA STORM WATER MANAGEMENT MODEL - VERSION 5.2 (Build 5.2.4)
  ------------------------------------------------------------

  MSD System Wide Model - Great Miami - Sewershed MC-025 
  Example of using control rules with a pump. 
  
  ****************
  Analysis Options
  ****************
  Flow Units ............... CFS
  Process Models:
    Rainfall/Runoff ........ NO
    RDII ................... NO
    Snowmelt ............... NO
    Groundwater ............ NO
    Flow Routing ........... YES
    Ponding Allowed ........ NO
    Water Quality .......... NO
  Flow Routing Method ...... DYNWAVE
  Surcharge Method ......... EXTRAN
  Starting Date ............ 01/01/2001 00:00:00
  Ending Date .............. 01/02/2001 00:00:00
  Antecedent Dry Days ...... 0.0
  Report Time Step ......... 00:01:00
  Routing Time Step ........ 5.00 sec
  Variable Time Step ....... YES
  Maximum Trials ........... 8
  Number of Threads ........ 1
  Head Tolerance ........... 0.005000 ft
  
  
  **************************        Volume        Volume
  Flow Routing Continuity        acre-feet      10^6 gal
  **************************     ---------     ---------
  Dry Weather Inflow .......         0.000         0.000
  Wet Weather Inflow .......         0.000         0.000
  Groundwater Inflow .......         0.000         0.000
  RDII Inflow ..............         0.000         0.000
  External Inflow ..........         1.530         0.499
  External Outflow .........         1.517         0.494
  Flooding Loss ............         0.000         0.000
  Evaporation Loss .........         0.000         0.000
  Exfiltration Loss ........         0.000         0.000
  Initial Stored Volume ....         0.000         0.000
  Final Stored Volume ......         0.013         0.004
  Continuity Error (%) .....         0.021
  
  
  ***************************
  Time-Step Critical Elements
  ***************************
  Link 19114015-19114016 (56.31%)
  
  
  ********************************
  Highest Flow Instability Indexes
  ********************************
  All links are stable.
  
  
  *********************************
  Most Frequent Nonconverging Nodes
  *********************************
  Convergence obtained at all time steps.
  
  
  *************************
  Routing Time Step Summary
  *************************
  Minimum Time Step           :     2.18 sec
  Average Time Step           :     4.81 sec
  Maximum Time Step           :     5.00 sec
  % of Time in Steady State   :     0.00
  Average Iterations per Step :     2.00
  % of Steps Not Converging   :     0.00
  Time Step Frequencies       :
      5.000 -  3.155 sec      :    99.99 %
      3.155 -  1.991 sec      :     0.01 %
      1.991 -  1.256 sec      :     0.00 %
      1.256 -  0.792 sec      :     0.00 %
      0.792 -  0.500 sec      :     0.00 %
  
  
  ******************
  Node Depth Summary
  ******************
  
  ---------------------------------------------------------------------------------
                                 Average  Maximum  Maximum  Time of Max    Reported
                                   Depth    Depth      HGL   Occurrence   Max Depth
  Node                 Type         Feet     Feet     Feet  days hr:min        Feet
  ---------------------------------------------------------------------------------
  19003001             JUNCTION     0.11     0.14   845.55     0  09:01        0.14
  19003002             JUNCTION     5.70     6.25   834.25     0  09:02        6.25
  19106015             JUNCTION     0.06     0.07   890.76     0  09:00        0.07
  19106016             JUNCTION     0.11     0.13   888.02     0  09:00        0.13
  19106017             JUNCTION     0.11     0.14   884.79     0  09:01        0.14
  19111002             JUNCTION     0.07     0.09   904.32     0  09:00        0.09
  19111003             JUNCTION     0.10     0.13   904.12     0  09:00        0.13
  19111004             JUNCTION     0.06     0.07   893.96     0  09:00        0.07
  19111005             JUNCTION     0.11     0.14   880.83     0  09:01        0.14
  19111006             JUNCTION     0.05     0.06   915.83     0  09:00        0.06
  19111007             JUNCTION     0.08     0.09   907.16     0  09:00        0.09
  19111008             JUNCTION     0.12     0.15   902.39     0  09:01        0.15
  19111009             JUNCTION     0.21     0.23   897.88     0  09:01        0.23
  19111010             JUNCTION     0.18     0.21   889.14     0  09:01        0.21
  19111012             JUNCTION     0.06     0.07   888.13     0  09:00        0.07
  19111013             JUNCTION     0.25     0.26   899.46     0  09:00        0.26
  19111014             JUNCTION     0.23     0.24   900.70     0  05:35        0.24
  19111015             JUNCTION     0.04     0.05   891.82     0  09:00        0.05
  19112001             JUNCTION     0.40     0.47   876.43     0  09:02        0.47
  19114004             JUNCTION     0.05     0.06   892.89     0  09:00        0.06
  19114008             JUNCTION     0.06     0.07   886.96     0  09:00        0.07
  19114009             JUNCTION     0.09     0.11   884.27     0  09:00        0.11
  19114010             JUNCTION     0.11     0.14   881.55     0  09:00        0.14
  19114011             JUNCTION     0.10     0.12   879.33     0  09:00        0.12
  19114012             JUNCTION     0.11     0.13   858.49     0  09:01        0.13
  19114013             JUNCTION     0.04     0.05   863.23     0  09:00        0.05
  19114014             JUNCTION     0.06     0.07   871.30     0  09:00        0.07
  19114015             JUNCTION     0.09     0.11   856.95     0  09:00        0.11
  19114016             JUNCTION     0.08     0.09   856.22     0  09:00        0.09
  19114017             JUNCTION     0.11     0.14   848.85     0  09:00        0.14
  19114018             JUNCTION     0.13     0.16   845.31     0  09:01        0.16
  19114019             JUNCTION     0.11     0.14   839.82     0  09:00        0.14
  19112005             OUTFALL      0.33     0.39   873.68     0  09:02        0.39
  GLENVIEWPSO          OUTFALL      0.12     0.22   833.72     0  09:02        0.22
  
  
  *******************
  Node Inflow Summary
  *******************
  
  -------------------------------------------------------------------------------------------------
                                  Maximum  Maximum                  Lateral       Total        Flow
                                  Lateral    Total  Time of Max      Inflow      Inflow     Balance
                                   Inflow   Inflow   Occurrence      Volume      Volume       Error
  Node                 Type           CFS      CFS  days hr:min    10^6 gal    10^6 gal     Percent
  -------------------------------------------------------------------------------------------------
  19003001             JUNCTION      0.03     0.28     0  09:01    0.000935       0.121       0.064
  19003002             JUNCTION      0.04     0.59     0  09:01      0.0172       0.258       0.591
  19106015             JUNCTION      0.04     0.04     0  09:00      0.0172      0.0172       0.033
  19106016             JUNCTION      0.04     0.12     0  09:00      0.0172      0.0515       0.177
  19106017             JUNCTION      0.04     0.16     0  09:00      0.0172      0.0685       0.114
  19111002             JUNCTION      0.04     0.04     0  09:00      0.0172      0.0172       0.031
  19111003             JUNCTION      0.04     0.08     0  09:00      0.0172      0.0343       0.104
  19111004             JUNCTION      0.04     0.04     0  09:00      0.0172      0.0172       0.071
  19111005             JUNCTION      0.04     0.20     0  09:00      0.0172      0.0856       0.074
  19111006             JUNCTION      0.04     0.04     0  09:00      0.0172      0.0172       0.048
  19111007             JUNCTION      0.04     0.08     0  09:00      0.0172      0.0343       0.102
  19111008             JUNCTION      0.04     0.20     0  09:00      0.0172      0.0857       0.129
  19111009             JUNCTION      0.04     0.58     0  09:00      0.0172       0.301       0.109
  19111010             JUNCTION      0.04     0.62     0  09:00      0.0172       0.317       0.067
  19111012             JUNCTION      0.04     0.04     0  09:00      0.0172      0.0172       0.047
  19111013             JUNCTION      0.04     0.34     0  09:00      0.0172       0.198       0.138
  19111014             JUNCTION      0.00     0.30     0  05:17           0       0.181       0.061
  19111015             JUNCTION      0.04     0.04     0  09:00      0.0172      0.0172       0.031
  19112001             JUNCTION      0.04     0.85     0  09:00      0.0172        0.42       0.189
  19114004             JUNCTION      0.04     0.04     0  09:00      0.0172      0.0172       0.046
  19114008             JUNCTION      0.04     0.08     0  09:00      0.0172      0.0343       0.043
  19114009             JUNCTION      0.04     0.08     0  09:00      0.0172      0.0343       0.122
  19114010             JUNCTION      0.04     0.12     0  09:00      0.0172      0.0514       0.120
  19114011             JUNCTION      0.04     0.24     0  09:00      0.0172       0.103       0.061
  19114012             JUNCTION      0.04     0.28     0  09:00      0.0172        0.12       0.066
  19114013             JUNCTION      0.04     0.04     0  09:00      0.0172      0.0172       0.044
  19114014             JUNCTION      0.04     0.08     0  09:00      0.0172      0.0343       0.059
  19114015             JUNCTION      0.04     0.12     0  09:00      0.0172      0.0515       0.037
  19114016             JUNCTION      0.00     0.12     0  09:00           0      0.0514       0.028
  19114017             JUNCTION      0.04     0.20     0  09:00      0.0172      0.0857       0.086
  19114018             JUNCTION      0.04     0.24     0  09:00      0.0172       0.103       0.058
  19114019             JUNCTION      0.04     0.28     0  09:00      0.0172        0.12       0.055
  19112005             OUTFALL       0.00     0.85     0  09:02           0       0.419       0.000
  GLENVIEWPSO          OUTFALL       0.00     0.29     0  09:02           0      0.0752       0.000
  
  
  **********************
  Node Surcharge Summary
  **********************
  
  No nodes were surcharged.
  
  
  *********************
  Node Flooding Summary
  *********************
  
  No nodes were flooded.
  
  
  ***********************
  Outfall Loading Summary
  ***********************
  
  -----------------------------------------------------------
                         Flow       Avg       Max       Total
                         Freq      Flow      Flow      Volume
  Outfall Node           Pcnt       CFS       CFS    10^6 gal
  -----------------------------------------------------------
  19112005              99.88      0.65      0.85       0.419
  GLENVIEWPSO           75.37      0.16      0.29       0.075
  -----------------------------------------------------------
  System                87.63      0.81      1.15       0.494
  
  
  ********************
  Link Flow Summary
  ********************
  
  -----------------------------------------------------------------------------
                                 Maximum  Time of Max   Maximum    Max/    Max/
                                  |Flow|   Occurrence   |Veloc|    Full    Full
  Link                 Type          CFS  days hr:min    ft/sec    Flow   Depth
  -----------------------------------------------------------------------------
  19003001-19003002    CONDUIT      0.28     0  09:01      3.49    0.04    0.57
  19003002-GLENVIEWPSO CONDUIT      0.29     0  09:02      2.06    0.13    0.24
  19111002-19111003    CONDUIT      0.04     0  09:00      0.97    0.02    0.11
  19111003-19111008    CONDUIT      0.08     0  09:00      1.24    0.03    0.14
  19111004-19106016    CONDUIT      0.04     0  09:00      1.15    0.01    0.10
  19111005-19112001    CONDUIT      0.20     0  09:01      1.26    0.04    0.30
  19111006-19111007    CONDUIT      0.04     0  09:00      2.02    0.01    0.08
  19111007-19111008    CONDUIT      0.08     0  09:00      1.48    0.02    0.12
  19111008-19111009    CONDUIT      0.20     0  09:01      1.99    0.05    0.19
  19111009-19111010    CONDUIT      0.58     0  09:01      4.52    0.11    0.22
  19111010-19112001    CONDUIT      0.62     0  09:01      2.64    0.09    0.34
  19111012-19114009    CONDUIT      0.04     0  09:00      1.26    0.01    0.09
  19111013-19111009    CONDUIT      0.34     0  09:00      2.38    0.14    0.25
  19111014-19111013    CONDUIT      0.30     0  05:31      2.26    0.13    0.25
  19111015-19114014    CONDUIT      0.04     0  09:00      2.49    0.00    0.06
  19112001-19112005    CONDUIT      0.85     0  09:02      2.66    0.41    0.43
  19114004-19114008    CONDUIT      0.04     0  09:00      1.76    0.01    0.07
  19114008-19114011    CONDUIT      0.08     0  09:00      2.26    0.01    0.09
  19114009-19114010    CONDUIT      0.08     0  09:00      1.42    0.03    0.12
  19114010-19114011    CONDUIT      0.12     0  09:00      2.04    0.04    0.13
  19114011-19114012    CONDUIT      0.24     0  09:00      4.28    0.03    0.12
  19114012-19003001    CONDUIT      0.28     0  09:01      4.67    0.04    0.13
  19114013-19114017    CONDUIT      0.04     0  09:00      1.67    0.01    0.10
  19114014-19114015    CONDUIT      0.08     0  09:00      2.32    0.01    0.09
  19114015-19114016    CONDUIT      0.12     0  09:00      2.90    0.02    0.10
  19114016-19114017    CONDUIT      0.12     0  09:00      2.31    0.02    0.12
  19114017-19114018    CONDUIT      0.20     0  09:00      2.71    0.04    0.15
  19114018-19114019    CONDUIT      0.24     0  09:01      3.31    0.05    0.15
  19114019-19003002    CONDUIT      0.28     0  09:01      3.60    0.04    0.57
  19106015-19106016    CONDUIT      0.04     0  09:00      1.48    0.01    0.10
  19106016-19106017    CONDUIT      0.12     0  09:00      1.83    0.04    0.14
  19106017-19111005    CONDUIT      0.16     0  09:01      2.36    0.04    0.14
  PUMP@19003002-19111014 PUMP         0.30     0  05:17              1.00
  
  
  ***************************
  Flow Classification Summary
  ***************************
  
  -------------------------------------------------------------------------------------
                      Adjusted    ---------- Fraction of Time in Flow Class ---------- 
                       /Actual         Up    Down  Sub   Sup   Up    Down  Norm  Inlet 
  Conduit               Length    Dry  Dry   Dry   Crit  Crit  Crit  Crit  Ltd   Ctrl  
  -------------------------------------------------------------------------------------
  19003001-19003002       1.00   0.00  0.00  0.00  0.77  0.00  0.00  0.22  0.78  0.00
  19003002-GLENVIEWPSO    1.00   0.25  0.00  0.00  0.74  0.00  0.00  0.00  0.00  0.00
  19111002-19111003       1.00   0.00  0.00  0.00  1.00  0.00  0.00  0.00  1.00  0.00
  19111003-19111008       1.00   0.00  0.00  0.00  1.00  0.00  0.00  0.00  1.00  0.00
  19111004-19106016       1.00   0.00  0.00  0.00  1.00  0.00  0.00  0.00  1.00  0.00
  19111005-19112001       1.00   0.00  0.00  0.00  1.00  0.00  0.00  0.00  1.00  0.00
  19111006-19111007       1.00   0.00  0.00  0.00  0.00  1.00  0.00  0.00  1.00  0.00
  19111007-19111008       1.00   0.00  0.00  0.00  1.00  0.00  0.00  0.00  1.00  0.00
  19111008-19111009       1.00   0.00  0.00  0.00  0.99  0.01  0.00  0.00  0.99  0.00
  19111009-19111010       1.00   0.00  0.00  0.00  0.00  1.00  0.00  0.00  0.00  0.00
  19111010-19112001       1.00   0.00  0.00  0.00  0.72  0.28  0.00  0.00  1.00  0.00
  19111012-19114009       1.00   0.00  0.00  0.00  1.00  0.00  0.00  0.00  1.00  0.00
  19111013-19111009       1.00   0.00  0.00  0.00  0.43  0.57  0.00  0.00  0.00  0.00
  19111014-19111013       1.00   0.00  0.01  0.00  0.99  0.00  0.00  0.00  0.99  0.00
  19111015-19114014       1.00   0.00  0.00  0.00  0.00  1.00  0.00  0.00  1.00  0.00
  19112001-19112005       1.00   0.00  0.00  0.00  1.00  0.00  0.00  0.00  0.00  0.00
  19114004-19114008       1.00   0.00  0.00  0.00  0.00  1.00  0.00  0.00  1.00  0.00
  19114008-19114011       1.00   0.00  0.00  0.00  0.00  1.00  0.00  0.00  1.00  0.00
  19114009-19114010       1.00   0.00  0.00  0.00  1.00  0.00  0.00  0.00  1.00  0.00
  19114010-19114011       1.00   0.00  0.00  0.00  0.00  1.00  0.00  0.00  0.00  0.00
  19114011-19114012       1.00   0.00  0.00  0.00  0.00  1.00  0.00  0.00  1.00  0.00
  19114012-19003001       1.00   0.00  0.00  0.00  0.00  0.00  0.00  1.00  0.00  0.00
  19114013-19114017       1.00   0.00  0.00  0.00  1.00  0.00  0.00  0.00  1.00  0.00
  19114014-19114015       1.00   0.00  0.00  0.00  0.00  1.00  0.00  0.00  1.00  0.00
  19114015-19114016       1.00   0.00  0.00  0.00  0.00  1.00  0.00  0.00  0.00  0.00
  19114016-19114017       1.00   0.00  0.00  0.00  0.00  1.00  0.00  0.00  1.00  0.00
  19114017-19114018       1.00   0.00  0.00  0.00  0.00  1.00  0.00  0.00  1.00  0.00
  19114018-19114019       1.00   0.00  0.00  0.00  0.00  1.00  0.00  0.00  0.00  0.00
  19114019-19003002       1.00   0.00  0.00  0.00  0.77  0.00  0.00  0.22  0.78  0.00
  19106015-19106016       1.00   0.00  0.00  0.00  1.00  0.00  0.00  0.00  1.00  0.00
  19106016-19106017       1.00   0.00  0.00  0.00  0.19  0.81  0.00  0.00  0.99  0.00
  19106017-19111005       1.00   0.00  0.00  0.00  0.00  1.00  0.00  0.00  0.00  0.00
  
  
  *************************
  Conduit Surcharge Summary
  *************************
  
  ----------------------------------------------------------------------------
                                                           Hours        Hours 
                         --------- Hours Full --------   Above Full   Capacity
  Conduit                Both Ends  Upstream  Dnstream   Normal Flow   Limited
  ----------------------------------------------------------------------------
  19003001-19003002           0.01      0.01     17.91      0.01         0.01
  19114019-19003002           0.01      0.01     17.91      0.01         0.01
  
  
  ***************
  Pumping Summary
  ***************
  
  ---------------------------------------------------------------------------------------------------------
                                                  Min       Avg       Max     Total     Power    % Time Off
                        Percent   Number of      Flow      Flow      Flow    Volume     Usage    Pump Curve
  Pump                 Utilized   Start-Ups       CFS       CFS       CFS  10^6 gal     Kw-hr    Low   High
  ---------------------------------------------------------------------------------------------------------
  PUMP@19003002-19111014    99.35           1      0.00      0.28      0.30     0.181     38.04    0.0   78.5
  

  Analysis begun on:  Fri Mar  6 14:32:34 2026
  Analysis ended on:  Fri Mar  6 14:32:34 2026
  Total elapsed time: < 1 sec