
  EPA STORM WATER MANAGEMENT MODEL - VERSION 5.2 (Build 5.2.4)
  ------------------------------------------------------------

  Scenario Run :  1DONLY 
  WARNING 02: maximum depth increased for Node 140
  WARNING 02: maximum depth increased for Node 173
  WARNING 02: maximum depth increased for Node 25
  WARNING 02: maximum depth increased for Node 255
  WARNING 02: maximum depth increased for Node 26
  WARNING 02: maximum depth increased for Node 261
  WARNING 02: maximum depth increased for Node 276
  WARNING 02: maximum depth increased for Node 31
  WARNING 02: maximum depth increased for Node 74
  WARNING 02: maximum depth increased for Node 77
  WARNING 02: maximum depth increased for Node JCT-10
  WARNING 02: maximum depth increased for Node JCT-160
  WARNING 02: maximum depth increased for Node JCT-162
  WARNING 02: maximum depth increased for Node JCT-164
  WARNING 02: maximum depth increased for Node JCT-166
  WARNING 02: maximum depth increased for Node JCT-168
  WARNING 02: maximum depth increased for Node JCT-170
  
  ****************
  Analysis Options
  ****************
  Flow Units ............... CFS
  Process Models:
    Rainfall/Runoff ........ YES
    RDII ................... YES
    Snowmelt ............... NO
    Groundwater ............ NO
    Flow Routing ........... YES
    Ponding Allowed ........ NO
    Water Quality .......... NO
  Infiltration Method ...... GREEN_AMPT
  Flow Routing Method ...... DYNWAVE
  Surcharge Method ......... EXTRAN
  Starting Date ............ 01/01/1997 00:00:00
  Ending Date .............. 01/01/1997 02:00:00
  Antecedent Dry Days ...... 5.0
  Report Time Step ......... 00:05:00
  Wet Time Step ............ 00:00:30
  Dry Time Step ............ 00:01:00
  Routing Time Step ........ 30.00 sec
  Variable Time Step ....... YES
  Maximum Trials ........... 6
  Number of Threads ........ 1
  Head Tolerance ........... 0.000100 ft
  
  
  **********************           Volume        Volume
  Rainfall Dependent I/I        acre-feet      10^6 gal
  **********************        ---------     ---------
  Sewershed Rainfall ......       173.471        56.528
  RDII Produced ...........         5.019         1.636
  RDII Ratio ..............         0.029
  
  
  **************************        Volume         Depth
  Runoff Quantity Continuity     acre-feet        inches
  **************************     ---------       -------
  Initial Snow Cover .......         0.000         0.000
  Total Precipitation ......       314.224        12.782
  Evaporation Loss .........         0.162         0.007
  Infiltration Loss ........        47.521         1.933
  Surface Runoff ...........       261.815        10.650
  Snow Removed .............         0.000         0.000
  Final Snow Cover .........         0.000         0.000
  Final Storage ............         4.793         0.195
  Continuity Error (%) .....        -0.021
  
  
  **************************        Volume        Volume
  Flow Routing Continuity        acre-feet      10^6 gal
  **************************     ---------     ---------
  Dry Weather Inflow .......         0.058         0.019
  Wet Weather Inflow .......       261.012        85.055
  Groundwater Inflow .......         0.000         0.000
  RDII Inflow ..............         4.937         1.609
  External Inflow ..........         0.292         0.095
  External Outflow .........        73.490        23.948
  Flooding Loss ............        84.003        27.373
  Evaporation Loss .........         0.028         0.009
  Exfiltration Loss ........         4.002         1.304
  Initial Stored Volume ....         0.003         0.001
  Final Stored Volume ......        94.114        30.668
  Continuity Error (%) .....         4.004
  
  
  *************************
  Highest Continuity Errors
  *************************
  Node 166 (97.38%)
  Node 26 (63.34%)
  Node 989 (23.58%)
  Node 83 (21.73%)
  Node 348 (15.61%)
  
  
  ***************************
  Time-Step Critical Elements
  ***************************
  Link 3289 (57.92%)
  Link 1307 (4.49%)
  Link 1228 (3.65%)
  Link 1293 (3.09%)
  Link 2601OF (2.52%)
  
  
  ********************************
  Highest Flow Instability Indexes
  ********************************
  Link 166OF (103)
  Link CDT-137 (47)
  Link CDT-143 (47)
  Link CDT-141 (46)
  Link 257OF (42)
  
  
  *********************************
  Most Frequent Nonconverging Nodes
  *********************************
  Node OFALL-10 (93.69%)
  Node OFALL-12 (93.69%)
  Node VIADUCT1 (93.69%)
  Node VIADUCT2 (93.69%)
  Node 351 (79.52%)
  
  
  *************************
  Routing Time Step Summary
  *************************
  Minimum Time Step           :     1.00 sec
  Average Time Step           :    10.10 sec
  Maximum Time Step           :    30.00 sec
  % of Time in Steady State   :     0.00
  Average Iterations per Step :     5.88
  % of Steps Not Converging   :    93.69
  Time Step Frequencies       :
     30.000 - 15.195 sec      :    13.20 %
     15.195 -  7.696 sec      :    51.40 %
      7.696 -  3.898 sec      :    27.25 %
      3.898 -  1.974 sec      :     7.16 %
      1.974 -  1.000 sec      :     0.98 %
  
  
  ***************************
  Subcatchment Runoff Summary
  ***************************
  
  ------------------------------------------------------------------------------------------------------------------------------
                            Total      Total      Total      Total     Imperv       Perv      Total       Total     Peak  Runoff
                           Precip      Runon       Evap      Infil     Runoff     Runoff     Runoff      Runoff   Runoff   Coeff
  Subcatchment                 in         in         in         in         in         in         in    10^6 gal      CFS
  ------------------------------------------------------------------------------------------------------------------------------
  C10                       12.78       0.00       0.01       0.25      11.41       1.03      12.43        3.26   577.11   0.973
  C13                       12.78       0.00       0.01       0.27      11.29       1.14      12.43        0.61   115.05   0.973
  C15                       12.78       0.00       0.01       1.11       7.87       3.74      11.61        3.11   528.71   0.908
  C20                       12.78       0.00       0.01       1.63       5.59       5.53      11.12        2.30   376.56   0.870
  C25                       12.78       0.00       0.01       2.20       4.32       6.14      10.46        4.22   568.29   0.818
  C30                       12.78       0.00       0.01       2.35       3.30       7.11      10.41        1.90   271.56   0.814
  C33                       12.78       0.00       0.01       1.79       4.44       6.52      10.96        2.12   352.76   0.858
  C35                       12.78       0.00       0.01       2.01       5.08       5.53      10.61        3.88   527.76   0.830
  C45                       12.78       0.00       0.01       2.18       4.44       5.96      10.40        3.02   394.82   0.814
  C50                       12.78       0.00       0.01       1.81       5.84       4.98      10.81        5.60   788.16   0.846
  C55                       12.78       0.00       0.01       1.52       6.09       5.12      11.22        1.97   328.60   0.878
  C57                       12.78       0.00       0.01       1.64       6.09       5.01      11.10        3.86   602.05   0.868
  C60                       12.78       0.00       0.01       1.46       6.85       4.42      11.26        4.68   728.78   0.881
  C65                       12.78       0.00       0.01       1.04       7.75       3.94      11.69        1.98   365.29   0.914
  D10                       12.78       0.00       0.01       0.58      10.01       2.10      12.12        3.22   556.66   0.948
  D15                       12.78       0.00       0.01       1.35       7.11       4.27      11.38        1.85   302.84   0.890
  D20                       12.78       0.00       0.01       1.30       6.86       4.58      11.44        2.14   373.46   0.895
  D21                       12.78       0.00       0.01       2.63       2.67       7.38      10.05        4.08   512.30   0.786
  D22                       12.78       0.00       0.01       2.54       3.17       6.76       9.93        3.76   437.96   0.777
  D25                       12.78       0.00       0.01       2.53       3.05       7.08      10.13        1.57   197.86   0.793
  D30                       12.78       0.00       0.01       2.78       2.92       5.57       8.49        3.31   296.48   0.664
  D32                       12.78       0.00       0.01       1.59       6.60       4.53      11.13        1.00   151.14   0.870
  D35                       12.78       0.00       0.01       2.56       3.05       6.92       9.96        2.20   261.22   0.780
  D40                       12.78       0.00       0.01       2.44       3.43       6.77      10.20        2.83   359.36   0.798
  D45                       12.78       0.00       0.01       2.21       4.32       6.07      10.39        4.51   588.65   0.813
  D50                       12.78       0.00       0.01       1.93       4.95       5.86      10.82        2.46   368.16   0.846
  D55                       12.78       0.00       0.01       2.55       3.30       6.37       9.67        1.84   198.19   0.757
  D60                       12.78       0.00       0.01       2.54       3.17       6.77       9.95        3.42   398.69   0.778
  D65                       12.78       0.00       0.01       2.45       3.05       7.27      10.31        2.42   333.96   0.807
  D70                       12.78       0.00       0.01       1.76       5.59       5.40      10.99        2.17   333.76   0.860
  
  
  ******************
  Node Depth Summary
  ******************
  
  ---------------------------------------------------------------------------------
                                 Average  Maximum  Maximum  Time of Max    Reported
                                   Depth    Depth      HGL   Occurrence   Max Depth
  Node                 Type         Feet     Feet     Feet  days hr:min        Feet
  ---------------------------------------------------------------------------------
  1001                 JUNCTION     0.77     3.16   712.10     0  00:49        2.42
  105                  JUNCTION     0.19     0.75   679.54     0  00:50        0.75
  13                   JUNCTION     0.02     0.02   689.39     0  01:46        0.02
  136                  JUNCTION     7.54    11.17   676.30     0  00:50       11.17
  137                  JUNCTION     1.63     9.69   700.18     0  00:48        9.69
  140                  JUNCTION     5.11     8.43   674.71     0  00:55        8.39
  144                  JUNCTION     3.97     6.84   673.20     0  00:53        6.67
  147                  JUNCTION     0.27     0.52   687.06     0  01:00        0.52
  15                   JUNCTION     0.01     0.01   687.88     0  00:16        0.01
  150                  JUNCTION     0.49     1.57   683.36     0  00:51        1.54
  158                  JUNCTION     3.71     6.63   676.69     0  00:52        6.57
  166                  JUNCTION     4.89     7.32   677.39     0  00:52        7.31
  173                  JUNCTION     1.79     4.93   674.95     0  00:54        4.91
  179                  JUNCTION     1.98     5.01   673.81     0  00:51        5.01
  18                   JUNCTION     0.01     0.01   694.55     0  01:21        0.01
  183                  JUNCTION     0.80     6.04   677.00     0  00:49        4.64
  19                   JUNCTION     0.69     2.01   673.88     0  00:50        1.98
  200                  JUNCTION     0.54     1.42   690.54     0  00:53        1.39
  201                  JUNCTION     1.54     4.54   698.42     0  00:49        4.42
  205                  JUNCTION     5.51    10.08   674.85     0  00:51        9.60
  209                  JUNCTION     4.66    12.20   683.25     0  00:49        8.09
  232                  JUNCTION     3.89     6.48   677.89     0  00:49        6.48
  244                  JUNCTION     0.24     1.28   679.82     0  00:51        1.19
  25                   JUNCTION     0.00     0.03   673.88     0  00:51        0.02
  255                  JUNCTION     0.93     1.34   670.30     0  01:35        1.34
  257                  JUNCTION     7.38    10.31   680.84     0  00:48       10.00
  26                   JUNCTION     3.41     4.88   670.36     0  01:36        4.87
  260                  JUNCTION     3.05     5.00   677.44     0  00:51        5.00
  261                  JUNCTION     3.17     5.74   678.36     0  00:51        5.65
  267                  JUNCTION     0.28     1.12   697.88     0  00:50        1.12
  269                  JUNCTION     7.96    13.73   680.88     0  00:49       11.70
  276                  JUNCTION     0.28     1.55   682.00     0  00:51        1.38
  281                  JUNCTION     3.53     6.55   679.03     0  00:51        6.55
  285                  JUNCTION     0.33     1.70   683.16     0  00:50        1.69
  297                  JUNCTION     2.23     8.02   682.06     0  00:50        4.97
  304                  JUNCTION     1.75     7.33   682.15     0  00:50        4.19
  306                  JUNCTION     0.57     2.57   682.52     0  00:51        1.80
  31                   JUNCTION     0.17     0.72   672.38     0  00:50        0.72
  32                   JUNCTION     0.00     0.00   697.86     0  01:21        0.00
  323                  JUNCTION     2.51     7.10   685.74     0  00:50        7.09
  325                  JUNCTION     0.58     5.51   682.63     0  00:53        2.03
  33                   JUNCTION     0.02     0.02   693.92     0  02:00        0.02
  333                  JUNCTION     6.29     8.22   685.06     0  00:47        8.22
  348                  JUNCTION     2.82     4.99   687.66     0  00:49        4.99
  351                  JUNCTION     8.78    11.44   687.07     0  00:51       11.41
  371                  JUNCTION     0.36     1.27   698.33     0  00:50        1.26
  384                  JUNCTION     4.20     8.53   689.64     0  00:47        5.66
  387                  JUNCTION     3.52     7.57   701.52     0  00:50        7.55
  393                  JUNCTION     0.04     0.04   688.37     0  00:18        0.04
  4                    JUNCTION     0.01     0.01   691.31     0  01:40        0.01
  407                  JUNCTION     0.27     0.88   709.24     0  00:50        0.87
  46                   JUNCTION     3.71    15.05   702.32     0  00:48       15.05
  56                   JUNCTION     0.04     0.05   685.28     0  02:00        0.05
  64                   JUNCTION     2.73    13.82   702.27     0  00:48       13.64
  7                    JUNCTION     0.88     2.90   677.41     0  00:54        2.90
  74                   JUNCTION     2.96     4.38   670.35     0  01:35        4.37
  76                   JUNCTION     2.53    13.46   702.27     0  00:48       13.10
  77                   JUNCTION     2.17     3.01   670.47     0  01:35        3.01
  879                  JUNCTION     0.00     0.00   697.41     0  02:00        0.00
  882                  JUNCTION     0.13     0.27   692.75     0  00:57        0.26
  893                  JUNCTION     0.23     0.78   703.46     0  00:51        0.74
  894                  JUNCTION     0.23     0.79   706.06     0  00:50        0.78
  95                   JUNCTION     0.37     1.26   695.43     0  00:50        1.25
  956                  JUNCTION     0.30     0.77   695.14     0  00:51        0.73
  974                  JUNCTION     1.22     5.44   681.15     0  00:53        3.35
  982                  JUNCTION     1.26     5.96   681.80     0  00:53        3.27
  JCT-10               JUNCTION     2.06     4.97   675.00     0  00:54        4.97
  JCT-100              JUNCTION     2.17     4.00   720.75     0  01:09        4.00
  JCT-102              JUNCTION     1.74     2.98   718.98     0  01:09        2.98
  JCT-104              JUNCTION     2.80     5.74   720.68     0  01:49        5.74
  JCT-106              JUNCTION     3.27     6.52   719.99     0  01:49        6.52
  JCT-108              JUNCTION     2.17     3.94   716.83     0  01:24        3.94
  JCT-110              JUNCTION     0.33     1.04   711.80     0  01:46        0.94
  JCT-112              JUNCTION     0.71     2.55   722.04     0  01:49        2.55
  JCT-114              JUNCTION     1.70     4.00   723.65     0  01:23        4.00
  JCT-116              JUNCTION     0.40     1.10   719.92     0  01:48        1.10
  JCT-118              JUNCTION     2.14     3.99   718.83     0  01:11        3.99
  JCT-12               JUNCTION     2.33     5.54   674.72     0  00:59        3.86
  JCT-120              JUNCTION     2.99     5.77   719.17     0  01:48        5.77
  JCT-122              JUNCTION     2.91     6.02   718.32     0  01:48        6.01
  JCT-124              JUNCTION     2.23     4.04   712.49     0  01:10        4.04
  JCT-126              JUNCTION     1.85     3.36   706.65     0  01:11        3.31
  JCT-128              JUNCTION     0.14     0.20   699.82     0  01:53        0.20
  JCT-130              JUNCTION     0.15     0.25   715.90     0  01:50        0.25
  JCT-132              JUNCTION     2.00     4.00   719.44     0  01:13        4.00
  JCT-134              JUNCTION     0.02     0.03   712.03     0  01:14        0.03
  JCT-136              JUNCTION     0.01     0.01   707.57     0  00:21        0.01
  JCT-138              JUNCTION    11.34    31.63   711.63     0  01:32       25.69
  JCT-14               JUNCTION     2.51     5.14   673.48     0  00:59        4.79
  JCT-140              JUNCTION     9.88    30.49   712.49     0  01:32       23.34
  JCT-142              JUNCTION     7.98    28.47   713.47     0  01:40       20.03
  JCT-144              JUNCTION     7.51    17.23   702.73     0  01:19       17.23
  JCT-146              JUNCTION    17.94    22.41   708.41     0  00:50       22.41
  JCT-148              JUNCTION    34.13    41.48   709.18     0  00:55       41.48
  JCT-150              JUNCTION    30.07    38.32   708.32     0  00:50       37.20
  JCT-152              JUNCTION    23.98    32.32   707.32     0  00:50       30.48
  JCT-154              JUNCTION     2.09     3.72   692.72     0  01:07        3.62
  JCT-156              JUNCTION     8.65    28.57   709.04     0  00:57       13.05
  JCT-16               JUNCTION     0.14     0.23   697.11     0  01:55        0.23
  JCT-160              JUNCTION     0.36     1.09   672.11     0  01:03        1.02
  JCT-162              JUNCTION     0.97     1.86   672.03     0  01:01        1.83
  JCT-164              JUNCTION     1.55     2.93   670.52     0  00:58        2.91
  JCT-166              JUNCTION     1.46     2.93   669.88     0  01:06        2.92
  JCT-168              JUNCTION     1.66     2.39   667.26     0  01:05        2.39
  JCT-170              JUNCTION     0.88     1.39   665.35     0  01:06        1.38
  JCT-174              JUNCTION     0.48     1.28   694.55     0  00:55        1.28
  JCT-176              JUNCTION     0.38     1.09   695.98     0  00:55        1.09
  JCT-178              JUNCTION     0.38     1.09   699.26     0  00:53        1.09
  JCT-18               JUNCTION     1.44     4.00   693.97     0  01:29        4.00
  JCT-180              JUNCTION     0.53     1.50   701.75     0  00:50        1.50
  JCT-182              JUNCTION     0.42     1.33   703.82     0  00:51        1.30
  JCT-184              JUNCTION     0.46     1.49   704.50     0  00:51        1.48
  JCT-20               JUNCTION     1.52     4.00   686.57     0  01:27        4.00
  JCT-22               JUNCTION     2.63     8.81   677.93     0  02:00        8.81
  JCT-24               JUNCTION     0.58     3.45   708.28     0  01:54        3.45
  JCT-26               JUNCTION     0.70     3.89   703.51     0  01:47        3.89
  JCT-28               JUNCTION     1.54     4.00   689.15     0  01:26        4.00
  JCT-30               JUNCTION     2.88     7.58   679.19     0  02:00        7.58
  JCT-32               JUNCTION     1.23     4.72   714.90     0  01:44        4.72
  JCT-34               JUNCTION     1.23     4.01   707.13     0  01:35        4.01
  JCT-36               JUNCTION     1.72     4.16   691.55     0  01:23        4.16
  JCT-38               JUNCTION     2.54     6.17   679.28     0  01:45        6.17
  JCT-40               JUNCTION     0.24     0.78   704.22     0  01:46        0.69
  JCT-42               JUNCTION     1.77     4.00   703.39     0  01:27        4.00
  JCT-44               JUNCTION     1.35     4.18   701.34     0  01:54        4.18
  JCT-46               JUNCTION     2.24     4.02   685.34     0  01:10        4.02
  JCT-48               JUNCTION     2.18     4.00   678.61     0  01:16        4.00
  JCT-50               JUNCTION     1.60     4.17   728.45     0  01:28        4.17
  JCT-52               JUNCTION     2.82     7.05   728.05     0  01:48        7.05
  JCT-54               JUNCTION     0.20     0.33   718.00     0  01:49        0.33
  JCT-56               JUNCTION     2.43     4.00   692.05     0  01:05        4.00
  JCT-58               JUNCTION     2.84     5.17   691.22     0  01:48        5.17
  JCT-60               JUNCTION     0.44     0.60   684.81     0  01:58        0.60
  JCT-62               JUNCTION     0.13     0.22   725.63     0  01:50        0.22
  JCT-64               JUNCTION     0.17     0.30   711.63     0  01:50        0.30
  JCT-66               JUNCTION     1.71     4.00   701.57     0  01:23        4.00
  JCT-68               JUNCTION     0.38     0.49   692.49     0  01:46        0.49
  JCT-70               JUNCTION     1.61     4.00   721.84     0  01:33        4.00
  JCT-72               JUNCTION     1.84     4.00   714.40     0  01:21        4.00
  JCT-74               JUNCTION     3.26     4.05   703.86     0  00:47        4.05
  JCT-76               JUNCTION     3.46     4.00   701.16     0  00:43        4.00
  JCT-78               JUNCTION     2.57     4.14   716.33     0  01:04        4.14
  JCT-80               JUNCTION     2.50     3.92   714.28     0  01:03        3.92
  JCT-82               JUNCTION     2.48     4.00   719.11     0  01:04        4.00
  JCT-84               JUNCTION     2.31     3.68   717.72     0  01:04        3.68
  JCT-86               JUNCTION     1.73     4.31   729.93     0  01:38        4.31
  JCT-88               JUNCTION     2.10     4.26   726.26     0  01:17        4.26
  JCT-90               JUNCTION     2.07     4.08   722.97     0  01:15        4.08
  JCT-92               JUNCTION     2.08     4.00   719.36     0  01:14        4.00
  JCT-94               JUNCTION     2.32     5.42   716.42     0  01:48        5.41
  JCT-96               JUNCTION     0.24     0.37   702.37     0  01:44        0.37
  JCT-98               JUNCTION     0.46     1.37   722.17     0  01:48        1.37
  OFALL-10             OUTFALL      0.44     0.60   680.60     0  01:58        0.60
  OFALL-12             OUTFALL      0.72     1.18   661.18     0  01:06        1.17
  VIADUCT1             OUTFALL      0.20     0.76   696.76     0  00:50        0.75
  VIADUCT2             OUTFALL      0.13     0.38   692.38     0  00:51        0.35
  1114                 STORAGE      1.97     2.44   686.08     0  00:49        2.44
  1115                 STORAGE      6.57     8.18   690.68     0  01:26        8.18
  117                  STORAGE      3.71     6.74   673.54     0  00:52        6.62
  163                  STORAGE      2.55     5.79   673.92     0  00:53        5.56
  17                   STORAGE      0.57     1.55   684.49     0  00:52        1.51
  187                  STORAGE      3.58     5.80   677.38     0  00:52        5.80
  229                  STORAGE      2.02     4.47   678.48     0  00:57        4.38
  421                  STORAGE      0.67     2.12   707.67     0  00:50        2.11
  83                   STORAGE      7.01     9.84   670.34     0  01:34        9.84
  989                  STORAGE      1.66     3.30   687.33     0  00:50        3.11
  STOR-10              STORAGE      0.50     0.68   680.68     0  01:55        0.64
  STOR-12              STORAGE      0.41     0.63   685.63     0  01:58        0.62
  STOR-14              STORAGE     10.58    15.93   673.43     0  01:03       15.72
  STOR-16              STORAGE      8.02    21.35   674.18     0  02:00       21.35
  
  
  *******************
  Node Inflow Summary
  *******************
  
  -------------------------------------------------------------------------------------------------
                                  Maximum  Maximum                  Lateral       Total        Flow
                                  Lateral    Total  Time of Max      Inflow      Inflow     Balance
                                   Inflow   Inflow   Occurrence      Volume      Volume       Error
  Node                 Type           CFS      CFS  days hr:min    10^6 gal    10^6 gal     Percent
  -------------------------------------------------------------------------------------------------
  1001                 JUNCTION    394.82   394.82     0  00:50        3.01        3.01       0.170
  105                  JUNCTION    333.76   333.77     0  00:50        2.17        2.17      -0.028
  13                   JUNCTION      0.00     0.00     0  01:40    9.54e-05    0.000164       4.206
  136                  JUNCTION    556.66  1077.79     0  00:52        3.21        21.5       2.900
  137                  JUNCTION      0.00    28.15     0  00:48    0.000151      0.0843      -0.710
  140                  JUNCTION      0.00   814.88     0  01:09           0          20       2.513
  144                  JUNCTION      0.00   760.99     0  00:53           0        10.1       1.547
  147                  JUNCTION      0.00     4.46     0  00:49    0.000167      0.0589       0.263
  15                   JUNCTION      0.00     0.01     0  01:47    0.000177    0.000333       1.511
  150                  JUNCTION      0.01   583.83     0  00:50    0.000266         4.5      -0.196
  158                  JUNCTION      0.00   695.02     0  01:15           0        16.3       0.244
  166                  JUNCTION      0.00    76.47     0  00:43           0      0.0899    3715.896
  173                  JUNCTION      0.00    98.03     0  01:04           0        1.52       0.445
  179                  JUNCTION      0.00   629.06     0  00:50           0        7.52       2.220
  18                   JUNCTION      0.00     0.00     0  02:00    4.06e-05    7.75e-05       4.374
  183                  JUNCTION    328.60   918.53     0  00:50        1.96        5.81       0.140
  19                   JUNCTION    373.46   982.93     0  00:50        2.14        8.68       0.377
  200                  JUNCTION    398.70   566.37     0  00:51        3.41        5.23       0.864
  201                  JUNCTION    296.48   296.48     0  00:50         3.3         3.3       2.207
  205                  JUNCTION      0.00   652.71     0  00:50           0        4.44       7.618
  209                  JUNCTION    333.96  1211.43     0  00:49        2.41        8.05      12.809
  232                  JUNCTION    528.71  1084.74     0  00:50         3.1        6.97       1.464
  244                  JUNCTION      0.00   698.79     0  00:50           0         3.5      -0.016
  25                   JUNCTION      0.00     6.66     0  00:50           0     0.00259       2.849
  255                  JUNCTION      0.00   760.91     0  00:53           0        14.4       2.138
  257                  JUNCTION    365.29   365.29     0  00:49        1.97        1.97       6.156
  26                   JUNCTION      0.00   309.61     0  00:49    0.000195        2.61     172.808
  260                  JUNCTION      0.00   669.77     0  00:51           0        9.59       0.557
  261                  JUNCTION      0.00   841.49     0  00:50           0        9.57       0.388
  267                  JUNCTION    602.05   602.05     0  00:49        3.85        3.85      -0.033
  269                  JUNCTION    359.36  1190.09     0  00:52        2.82        10.2       8.021
  276                  JUNCTION      0.00   632.85     0  00:50           0           3       0.080
  281                  JUNCTION    376.56  1372.34     0  00:53        2.29        12.1       2.012
  285                  JUNCTION      0.00  1006.84     0  00:50    6.02e-05        4.66       0.062
  297                  JUNCTION      0.00   391.76     0  00:50    4.71e-05       0.634      -2.787
  304                  JUNCTION      0.00    58.93     0  00:50    1.18e-05        0.17       0.737
  306                  JUNCTION      0.00  1002.04     0  00:51           0        7.87       0.088
  31                   JUNCTION    302.84   302.84     0  00:49        1.84        1.85      -0.088
  32                   JUNCTION      0.00     0.00     0  01:00    1.51e-05    1.51e-05       1.826
  323                  JUNCTION    728.78  1884.04     0  00:50        4.67        12.8       1.996
  325                  JUNCTION      0.00   291.59     0  00:52    2.06e-05        1.38       0.452
  33                   JUNCTION      0.01     0.01     0  01:00    0.000282    0.000282       4.271
  333                  JUNCTION      0.00    60.18     0  00:53    0.000166        1.31       1.472
  348                  JUNCTION    261.23  1036.30     0  00:48         2.2        4.51      18.491
  351                  JUNCTION      0.00   807.54     0  00:48    0.000149        5.17      16.524
  371                  JUNCTION      0.00  1165.73     0  00:50    6.61e-05        8.11       0.066
  384                  JUNCTION    271.56   599.84     0  00:51        1.89        4.82      12.521
  387                  JUNCTION    788.16  1166.63     0  00:50        5.59        8.59       5.860
  393                  JUNCTION      0.01     0.01     0  01:00    0.000659    0.000659       1.417
  4                    JUNCTION      0.00     0.00     0  01:30           0    7.32e-05       5.059
  407                  JUNCTION      0.00   395.14     0  00:50     0.00013        3.01       0.161
  46                   JUNCTION    198.19   198.19     0  00:50        1.84        1.86       0.148
  56                   JUNCTION      0.01     0.01     0  02:00    0.000439     0.00057       7.252
  64                   JUNCTION      0.00    28.32     0  00:48    9.52e-05       0.112       0.338
  7                    JUNCTION    512.30  1203.26     0  00:52        4.07          11       0.232
  74                   JUNCTION      0.00  1261.32     0  00:54    6.14e-05        17.5      12.959
  76                   JUNCTION      0.00    27.57     0  00:48    0.000129      0.0971      -0.077
  77                   JUNCTION      0.00  1123.99     0  00:51           0        16.8       1.328
  879                  JUNCTION      0.00     0.00     0  01:21    2.33e-05    3.81e-05       1.882
  882                  JUNCTION      0.00    16.85     0  00:52    0.000111       0.236       4.478
  893                  JUNCTION      0.00   330.78     0  00:50           0        2.47       0.098
  894                  JUNCTION      0.00   523.25     0  00:50           0        3.87       0.045
  95                   JUNCTION    588.66   588.66     0  00:50         4.5         4.5       0.011
  956                  JUNCTION    151.18   439.10     0  00:50           1        4.04       0.960
  974                  JUNCTION      0.00   577.29     0  00:51    7.76e-05        2.04       1.637
  982                  JUNCTION      0.00   399.70     0  00:51    1.74e-05         1.6       1.676
  JCT-10               JUNCTION    115.05   175.90     0  00:49       0.606        2.07       0.356
  JCT-100              JUNCTION      0.35     0.69     0  01:49     0.00685      0.0135       3.928
  JCT-102              JUNCTION      0.42     1.23     0  01:49     0.00837      0.0238       2.326
  JCT-104              JUNCTION      0.24     0.61     0  01:49     0.00478      0.0131       6.896
  JCT-106              JUNCTION      0.28     0.51     0  01:49     0.00548      0.0125       5.025
  JCT-108              JUNCTION      0.45     0.97     0  01:49     0.00883      0.0207       2.856
  JCT-110              JUNCTION      0.21     0.93     0  01:44     0.00425      0.0213       2.615
  JCT-112              JUNCTION      0.37     0.37     0  01:49     0.00717     0.00717       3.320
  JCT-114              JUNCTION      0.80     0.80     0  01:59      0.0131      0.0131       3.689
  JCT-116              JUNCTION      0.31     0.31     0  01:49     0.00612     0.00612       4.384
  JCT-118              JUNCTION      0.53     1.00     0  01:49      0.0104      0.0183       3.165
  JCT-12               JUNCTION      0.00    44.38     0  00:59           0       0.546       0.537
  JCT-120              JUNCTION      0.29     0.51     0  01:13      0.0057      0.0122       7.164
  JCT-122              JUNCTION      0.40     0.69     0  01:48     0.00801      0.0173       3.058
  JCT-124              JUNCTION      0.36     1.44     0  01:49     0.00696      0.0311       2.990
  JCT-126              JUNCTION      0.00     0.68     0  01:33    3.18e-05       0.018       3.211
  JCT-128              JUNCTION      0.00     0.68     0  01:33           0      0.0175       1.349
  JCT-130              JUNCTION      0.39     0.39     0  01:49     0.00757     0.00757       1.868
  JCT-132              JUNCTION      0.28     0.32     0  01:12     0.00551     0.00559       4.259
  JCT-134              JUNCTION      0.00     0.00     0  01:00    0.000113    0.000113       4.410
  JCT-136              JUNCTION      0.00     0.00     0  01:19           0    0.000108       2.463
  JCT-138              JUNCTION      0.00     3.51     0  01:03    0.000111      0.0571       2.374
  JCT-14               JUNCTION      0.00    45.38     0  00:59           0       0.543       0.333
  JCT-140              JUNCTION      0.00     6.71     0  01:18     0.00014      0.0565       8.998
  JCT-142              JUNCTION      0.00     6.88     0  01:17    0.000131      0.0679      14.253
  JCT-144              JUNCTION      0.00     6.79     0  01:46    5.07e-05      0.0588      10.369
  JCT-146              JUNCTION      0.00    11.75     0  00:49    1.86e-05       0.109       7.267
  JCT-148              JUNCTION      0.00    17.50     0  00:43           0        0.42       1.869
  JCT-150              JUNCTION      0.00    16.45     0  00:46           0       0.282       2.118
  JCT-152              JUNCTION      0.00    13.32     0  00:49           0       0.277       5.972
  JCT-154              JUNCTION      0.00    12.01     0  01:04    4.74e-05       0.338       7.139
  JCT-156              JUNCTION      0.00     3.95     0  00:57    1.63e-05      0.0849      10.183
  JCT-16               JUNCTION      0.34     0.34     0  01:54     0.00666     0.00666       1.699
  JCT-160              JUNCTION      1.77    43.90     0  00:58      0.0951       0.237      10.247
  JCT-162              JUNCTION      0.00   441.60     0  00:58           0        4.63       5.951
  JCT-164              JUNCTION      0.00  1149.42     0  00:51           0        12.9       3.548
  JCT-166              JUNCTION      0.00  1120.17     0  00:59           0        12.4       7.077
  JCT-168              JUNCTION      0.00  1024.33     0  01:04           0        22.9       4.014
  JCT-170              JUNCTION      0.00  1022.83     0  01:05           0          22       1.881
  JCT-174              JUNCTION      0.00   169.88     0  00:55           0        1.51       0.335
  JCT-176              JUNCTION      0.00   169.97     0  00:54           0        1.52       0.214
  JCT-178              JUNCTION      0.00   169.81     0  00:53           0        1.52       0.328
  JCT-18               JUNCTION      0.79     1.12     0  01:55       0.015      0.0216       2.533
  JCT-180              JUNCTION      0.00   195.16     0  00:51           0        1.56       0.254
  JCT-182              JUNCTION      0.00   196.82     0  00:50           0        1.56       0.019
  JCT-184              JUNCTION    197.86   197.86     0  00:50        1.56        1.56       0.005
  JCT-20               JUNCTION      0.71     1.51     0  01:54      0.0136      0.0316       1.865
  JCT-22               JUNCTION      0.59     5.47     0  01:27      0.0115        0.11       2.521
  JCT-24               JUNCTION      0.63     0.63     0  01:54      0.0122      0.0122       2.299
  JCT-26               JUNCTION      0.55     1.18     0  01:54      0.0108      0.0227       2.477
  JCT-28               JUNCTION      0.55     1.68     0  01:54       0.011      0.0329       1.749
  JCT-30               JUNCTION      0.57     3.97     0  01:27      0.0112      0.0781       3.921
  JCT-32               JUNCTION      0.91     0.91     0  01:54      0.0176      0.0176       1.421
  JCT-34               JUNCTION      0.56     1.41     0  01:54       0.011       0.028       2.030
  JCT-36               JUNCTION      0.57     1.67     0  01:54      0.0113      0.0359       1.641
  JCT-38               JUNCTION      0.52     2.49     0  01:26     0.00996      0.0517       4.623
  JCT-40               JUNCTION      0.25     0.25     0  01:54     0.00485     0.00485       5.696
  JCT-42               JUNCTION      0.76     1.01     0  01:54      0.0146      0.0192       3.351
  JCT-44               JUNCTION      0.74     1.15     0  01:26      0.0146      0.0267       2.163
  JCT-46               JUNCTION      0.81     1.95     0  01:54      0.0154      0.0415       1.455
  JCT-48               JUNCTION      0.65     1.92     0  01:54      0.0124      0.0383       2.430
  JCT-50               JUNCTION      0.48     0.48     0  01:49     0.00931     0.00931       2.820
  JCT-52               JUNCTION      0.75     0.94     0  01:49      0.0146       0.021       2.500
  JCT-54               JUNCTION      0.37     1.32     0  01:49      0.0074      0.0278       1.590
  JCT-56               JUNCTION      0.39     1.70     0  01:49     0.00765      0.0351       2.107
  JCT-58               JUNCTION      0.36     0.64     0  01:49     0.00714      0.0172       3.742
  JCT-60               JUNCTION      0.00    13.82     0  01:58           0       0.371       0.899
  JCT-62               JUNCTION      0.37     0.37     0  01:49     0.00725     0.00725       2.391
  JCT-64               JUNCTION      0.39     0.76     0  01:50     0.00778      0.0149       2.655
  JCT-66               JUNCTION      0.38     1.14     0  01:50     0.00759      0.0221       3.427
  JCT-68               JUNCTION      0.00     1.58     0  01:23    9.52e-05      0.0474       2.292
  JCT-70               JUNCTION      0.80     1.12     0  01:59      0.0132      0.0213       3.264
  JCT-72               JUNCTION      0.80     1.63     0  01:59      0.0131       0.032       1.719
  JCT-74               JUNCTION      0.80     2.71     0  01:59      0.0131      0.0649       1.313
  JCT-76               JUNCTION     63.97    64.48     0  01:59        1.04        1.05       0.227
  JCT-78               JUNCTION      1.55     1.55     0  01:59      0.0252      0.0252       1.188
  JCT-80               JUNCTION      1.19     2.13     0  01:59      0.0193      0.0463       1.963
  JCT-82               JUNCTION      1.48     1.48     0  01:59      0.0241      0.0241       1.192
  JCT-84               JUNCTION      1.61     1.96     0  01:59      0.0262      0.0362       1.705
  JCT-86               JUNCTION      0.69     0.69     0  01:49      0.0135      0.0135       1.646
  JCT-88               JUNCTION      0.36     0.97     0  01:49       0.007      0.0198       2.854
  JCT-90               JUNCTION      0.35     0.85     0  01:49     0.00682      0.0194       3.237
  JCT-92               JUNCTION      0.44     0.99     0  01:49     0.00878      0.0228       2.846
  JCT-94               JUNCTION      0.50     0.97     0  01:49     0.00985      0.0242       3.838
  JCT-96               JUNCTION      0.74     2.58     0  01:44      0.0152      0.0593       1.689
  JCT-98               JUNCTION      0.34     0.34     0  01:49     0.00687     0.00687       4.072
  OFALL-10             OUTFALL       0.00    13.82     0  01:58           0       0.367       0.000
  OFALL-12             OUTFALL       0.00  1017.77     0  01:06           0        21.6       0.000
  VIADUCT1             OUTFALL       0.00   192.11     0  00:50           0        1.39       0.000
  VIADUCT2             OUTFALL       0.00    66.78     0  00:51           0       0.604       0.000
  1114                 STORAGE     568.29  1791.02     0  00:52        4.21        10.7       2.091
  1115                 STORAGE     352.76   352.76     0  00:50        2.11        2.11       0.401
  117                  STORAGE     577.11  1487.47     0  00:50        3.25          24       1.970
  163                  STORAGE       0.00  1089.26     0  00:50           0        10.7       2.604
  17                   STORAGE     437.96   710.71     0  00:52        3.75        6.92       0.090
  187                  STORAGE     368.16  1930.30     0  00:57        2.46        24.8       1.099
  229                  STORAGE       0.00  1753.52     0  00:51           0        13.5       1.168
  421                  STORAGE     527.76   527.76     0  00:50        3.87        3.87       0.026
  83                   STORAGE       0.00  1877.01     0  00:56           0        22.5      27.760
  989                  STORAGE       0.00   426.89     0  00:49           0       0.409      30.849
  STOR-10              STORAGE       0.00     2.58     0  01:44           0      0.0583       1.076
  STOR-12              STORAGE       0.00     0.68     0  01:24           0      0.0172       2.965
  STOR-14              STORAGE       0.00    43.51     0  00:55           0       0.541       8.317
  STOR-16              STORAGE       0.00     5.10     0  01:27           0       0.108      17.290
  
  
  **********************
  Node Surcharge Summary
  **********************
  
  Surcharging occurs when water rises above the top of the highest conduit.
  ---------------------------------------------------------------------
                                               Max. Height   Min. Depth
                                   Hours       Above Crown    Below Rim
  Node                 Type      Surcharged           Feet         Feet
  ---------------------------------------------------------------------
  1001                 JUNCTION        0.08          1.157        1.242
  136                  JUNCTION        1.26          7.920        0.000
  137                  JUNCTION        0.26          7.690        0.000
  144                  JUNCTION        1.30          4.840        1.410
  158                  JUNCTION        0.88          3.375        0.375
  166                  JUNCTION        1.28          5.318        1.112
  179                  JUNCTION        0.35          3.010        0.000
  183                  JUNCTION        0.18          4.045        4.004
  201                  JUNCTION        0.29          2.540        4.234
  205                  JUNCTION        1.23          7.084        3.086
  209                  JUNCTION        0.81          8.200        0.000
  232                  JUNCTION        0.78          2.732        0.000
  257                  JUNCTION        1.33          8.306        5.215
  269                  JUNCTION        1.22          9.730        0.000
  281                  JUNCTION        0.70          2.802        0.000
  297                  JUNCTION        0.61          5.265        0.000
  304                  JUNCTION        0.49          4.581        0.000
  306                  JUNCTION        0.03          0.569        3.382
  323                  JUNCTION        0.25          3.101        9.549
  325                  JUNCTION        0.01          2.760        0.744
  333                  JUNCTION        1.26          5.474        0.000
  348                  JUNCTION        1.19          2.490        0.000
  351                  JUNCTION        1.23          8.444        0.436
  384                  JUNCTION        1.21          5.532        1.662
  387                  JUNCTION        0.35          3.567        6.283
  46                   JUNCTION        0.31         11.053        0.000
  64                   JUNCTION        0.34         11.320        0.000
  76                   JUNCTION        0.31         10.960        0.000
  974                  JUNCTION        0.17          2.686        1.466
  982                  JUNCTION        0.16          3.210        1.540
  JCT-100              JUNCTION        0.85          3.500        0.000
  JCT-102              JUNCTION        0.87          2.484        0.000
  JCT-104              JUNCTION        0.88          5.243        0.086
  JCT-106              JUNCTION        0.93          6.024        0.483
  JCT-108              JUNCTION        0.88          3.442        0.000
  JCT-110              JUNCTION        0.24          0.537        2.787
  JCT-112              JUNCTION        0.49          2.051        1.531
  JCT-114              JUNCTION        0.66          3.500        0.000
  JCT-116              JUNCTION        0.48          0.604        2.896
  JCT-118              JUNCTION        0.80          3.489        0.000
  JCT-12               JUNCTION        0.37          2.541        7.878
  JCT-120              JUNCTION        0.86          5.271        0.400
  JCT-122              JUNCTION        0.82          5.516        0.664
  JCT-124              JUNCTION        0.83          3.539        0.000
  JCT-126              JUNCTION        0.85          2.855        0.688
  JCT-132              JUNCTION        0.78          3.500        0.000
  JCT-138              JUNCTION        0.94         30.125        0.000
  JCT-14               JUNCTION        0.70          2.140       23.567
  JCT-140              JUNCTION        0.84         28.987        0.000
  JCT-142              JUNCTION        0.70         26.969        0.000
  JCT-144              JUNCTION        0.69         15.729        0.000
  JCT-146              JUNCTION        1.17         20.913        0.000
  JCT-148              JUNCTION        1.24         39.983        0.000
  JCT-150              JUNCTION        1.23         36.821        7.927
  JCT-152              JUNCTION        1.18         30.822        2.316
  JCT-154              JUNCTION        0.88          2.216        3.275
  JCT-156              JUNCTION        1.04         27.067        0.000
  JCT-18               JUNCTION        0.52          3.500        0.000
  JCT-180              JUNCTION        0.07          0.000        0.000
  JCT-20               JUNCTION        0.55          3.500        0.000
  JCT-22               JUNCTION        0.54          7.815        5.504
  JCT-24               JUNCTION        0.22          2.952        0.549
  JCT-26               JUNCTION        0.24          3.393        0.000
  JCT-28               JUNCTION        0.56          3.500        0.000
  JCT-30               JUNCTION        0.75          6.575        2.685
  JCT-32               JUNCTION        0.41          4.219        0.000
  JCT-34               JUNCTION        0.44          3.512        0.000
  JCT-36               JUNCTION        0.61          3.659        0.000
  JCT-38               JUNCTION        0.72          5.169        0.000
  JCT-40               JUNCTION        0.23          0.279        3.221
  JCT-42               JUNCTION        0.72          3.500        0.000
  JCT-44               JUNCTION        0.55          3.680        5.819
  JCT-46               JUNCTION        0.83          3.523        0.000
  JCT-48               JUNCTION        0.86          3.333        0.000
  JCT-50               JUNCTION        0.58          3.670        0.000
  JCT-52               JUNCTION        0.72          6.549        6.341
  JCT-56               JUNCTION        0.91          3.500        0.000
  JCT-58               JUNCTION        0.93          4.667        0.833
  JCT-66               JUNCTION        0.64          3.500        0.000
  JCT-70               JUNCTION        0.62          3.500        0.000
  JCT-72               JUNCTION        0.69          3.500        0.000
  JCT-74               JUNCTION        1.21          3.550        0.000
  JCT-76               JUNCTION        1.28          3.495        0.000
  JCT-78               JUNCTION        0.93          3.645        0.000
  JCT-80               JUNCTION        0.95          3.425        0.000
  JCT-82               JUNCTION        0.93          3.500        0.000
  JCT-84               JUNCTION        0.93          3.184        0.000
  JCT-86               JUNCTION        0.70          3.807        0.000
  JCT-88               JUNCTION        0.74          3.760        0.000
  JCT-90               JUNCTION        0.76          3.581        0.000
  JCT-92               JUNCTION        0.80          3.500        0.000
  JCT-94               JUNCTION        0.76          4.918        3.550
  JCT-98               JUNCTION        0.49          0.873        2.740
  
  
  *********************
  Node Flooding Summary
  *********************
  
  Flooding refers to all water that overflows a node, whether it ponds or not.
  --------------------------------------------------------------------------
                                                             Total   Maximum
                                 Maximum   Time of Max       Flood    Ponded
                        Hours       Rate    Occurrence      Volume     Depth
  Node                 Flooded       CFS   days hr:min    10^6 gal      Feet
  --------------------------------------------------------------------------
  136                     0.15    427.16      0  00:52       0.942     0.000
  137                     0.14     20.33      0  00:48       0.009     0.000
  179                     0.06    281.75      0  00:53       0.270     0.000
  209                     0.01    847.18      0  00:49       0.075     0.000
  232                     0.18    481.74      0  00:52       1.285     0.000
  260                     0.46    556.25      0  00:58       4.437     0.000
  269                     0.01    406.80      0  00:49       0.036     0.000
  281                     0.13    681.98      0  00:53       0.900     0.000
  297                     0.01    218.49      0  00:50       0.014     0.000
  304                     0.01     35.23      0  00:50       0.002     0.000
  333                     0.05      3.60      0  00:47       0.002     0.000
  348                     0.04    977.95      0  00:49       0.449     0.000
  46                      0.13     47.62      0  00:50       0.102     0.000
  64                      0.01      4.42      0  00:48       0.001     0.000
  76                      0.01      2.50      0  00:48       0.000     0.000
  JCT-100                 0.56      0.26      0  01:49       0.003     0.000
  JCT-102                 0.85      1.23      0  01:49       0.022     0.000
  JCT-108                 0.60      0.31      0  01:49       0.003     0.000
  JCT-114                 0.61      0.49      0  01:59       0.005     0.000
  JCT-118                 0.79      1.00      0  01:49       0.016     0.000
  JCT-124                 0.82      0.76      0  01:49       0.012     0.000
  JCT-132                 0.48      0.12      0  01:49       0.001     0.000
  JCT-138                 0.01      1.72      0  01:33       0.000     0.000
  JCT-140                 0.01      0.85      0  01:32       0.000     0.000
  JCT-144                 0.64      5.98      0  01:40       0.053     0.000
  JCT-146                 1.16      6.91      0  00:50       0.101     0.000
  JCT-148                 1.08      0.98      0  01:10       0.021     0.000
  JCT-18                  0.51      0.33      0  01:55       0.003     0.000
  JCT-180                 0.07     27.28      0  00:50       0.036     0.000
  JCT-20                  0.54      0.66      0  01:59       0.007     0.000
  JCT-26                  0.21      0.06      0  01:54       0.000     0.000
  JCT-28                  0.55      0.77      0  01:55       0.008     0.000
  JCT-32                  0.26      0.05      0  01:54       0.000     0.000
  JCT-34                  0.41      0.31      0  01:54       0.003     0.000
  JCT-36                  0.61      0.62      0  01:54       0.008     0.000
  JCT-38                  0.25      0.50      0  02:00       0.002     0.000
  JCT-42                  0.55      0.61      0  01:54       0.006     0.000
  JCT-46                  0.83      1.19      0  01:54       0.020     0.000
  JCT-48                  0.72      1.92      0  01:54       0.023     0.000
  JCT-50                  0.52      0.28      0  01:49       0.003     0.000
  JCT-56                  0.91      1.42      0  01:49       0.024     0.000
  JCT-66                  0.60      0.43      0  01:50       0.005     0.000
  JCT-70                  0.43      0.29      0  01:59       0.002     0.000
  JCT-72                  0.65      0.65      0  01:59       0.007     0.000
  JCT-74                  1.11      2.20      0  01:59       0.048     0.000
  JCT-76                  1.27     63.62      0  02:00       1.020     0.000
  JCT-78                  0.87      1.13      0  01:59       0.013     0.000
  JCT-80                  0.93      1.20      0  01:59       0.018     0.000
  JCT-82                  0.92      1.13      0  01:59       0.014     0.000
  JCT-84                  0.93      1.44      0  01:59       0.020     0.000
  JCT-86                  0.36      0.08      0  01:49       0.000     0.000
  JCT-88                  0.70      0.47      0  01:49       0.007     0.000
  JCT-90                  0.74      0.30      0  01:49       0.005     0.000
  JCT-92                  0.75      0.53      0  01:49       0.008     0.000
  1114                    0.83   1779.74      0  00:52       8.609     0.000
  187                     0.31   1501.66      0  00:57       8.026     0.000
  83                      0.25    167.88      0  01:36       0.675     0.000
  
  
  **********************
  Storage Volume Summary
  **********************
  
  ------------------------------------------------------------------------------------------------
                         Average    Avg   Evap  Exfil     Maximum    Max    Time of Max    Maximum
                          Volume   Pcnt   Pcnt   Pcnt      Volume   Pcnt     Occurrence    Outflow
  Storage Unit          1000 ftł   Full   Loss   Loss    1000 ftł   Full    days hr:min        CFS
  ------------------------------------------------------------------------------------------------
  1114                     0.916   78.3    0.0    0.0       1.169  100.0       0  00:49     756.74
  1115                   209.305   39.6    0.0    0.0     276.419   52.3       0  01:26       1.93
  117                      7.630    0.1    0.0    0.0      38.345    0.4       0  00:52    1305.08
  163                      3.924    0.0    0.0    0.0      54.012    0.2       0  00:53     852.55
  17                       0.025    5.9    0.0    0.0       0.068   15.9       0  00:52     707.11
  187                     55.234   39.3    0.0    0.0     140.458  100.0       0  00:52     713.31
  229                     51.847    0.1    0.0    0.0     214.346    0.4       0  00:57    1274.37
  421                      0.029    0.0    0.0    0.0       0.092    0.0       0  00:50     523.25
  83                     993.893   63.8    0.0    5.5    1557.120  100.0       0  01:34     351.89
  989                      0.227    1.7    0.0    0.0       8.056   58.7       0  00:50     277.34
  STOR-10                  0.111    1.6    0.0    0.0       0.153    2.2       0  01:55       3.50
  STOR-12                  0.045    1.6    0.0    0.0       0.070    2.5       0  01:58       3.50
  STOR-14                  9.825   20.5    0.0    0.0      14.795   30.9       0  01:03      17.50
  STOR-16                  0.745   25.3    0.0    0.0       1.984   67.5       0  02:00       3.31
  
  
  ***********************
  Outfall Loading Summary
  ***********************
  
  ---------------------------------------------------------------------------------------
                         Flow       Avg       Max       Total         Total         Total
                         Freq      Flow      Flow      Volume            TN           TSS
  Outfall Node           Pcnt       CFS       CFS    10^6 gal           lbs           lbs
  ---------------------------------------------------------------------------------------
  OFALL-10              97.62      9.33     13.82       0.367         0.000         0.000
  OFALL-12              83.45    661.26   1017.77      21.585         0.000         0.000
  VIADUCT1              92.71     39.26    192.11       1.390         0.000         0.000
  VIADUCT2              99.86     16.36     66.78       0.604         0.000         0.000
  ---------------------------------------------------------------------------------------
  System                93.41    726.21   1097.88      23.946         0.000         0.000
  
  
  ********************
  Link Flow Summary
  ********************
  
  -----------------------------------------------------------------------------
                                 Maximum  Time of Max   Maximum    Max/    Max/
                                  |Flow|   Occurrence   |Veloc|    Full    Full
  Link                 Type          CFS  days hr:min    ft/sec    Flow   Depth
  -----------------------------------------------------------------------------
  1001OF               CONDUIT    393.66     0  00:50      4.98    1.16    0.72
  105OF                CONDUIT    329.06     0  00:50      4.31    0.19    0.69
  1114                 CONDUIT     17.54     0  00:52     11.17    0.77    1.00
  117                  CONDUIT    334.59     0  01:00     16.42    0.21    0.70
  117OF                CONDUIT   1056.79     0  00:51      9.11    2.39    1.00
  1209                 CONDUIT      8.64     0  00:50      8.61    1.21    0.59
  1211                 CONDUIT      8.67     0  00:56      8.02    0.99    0.59
  1225                 CONDUIT     28.05     0  00:48      9.14    2.21    1.00
  1226                 CONDUIT      0.00     0  01:21      0.00    0.00    0.00
  1228                 CONDUIT      6.69     0  00:51     10.21    0.95    0.78
  1230                 CONDUIT      5.26     0  00:51      7.14    0.89    0.89
  1249                 CONDUIT      0.02     0  00:46      1.49    0.00    0.51
  1269                 CONDUIT      3.22     0  00:51      4.37    0.94    0.89
  1270                 CONDUIT      2.81     0  00:48      5.20    2.70    1.00
  1275                 CONDUIT      0.00     0  01:40      0.25    0.00    0.01
  1276                 CONDUIT      0.00     0  01:47      0.52    0.00    0.01
  1277                 CONDUIT    139.45     0  00:52     15.21    1.51    0.69
  1281                 CONDUIT      7.09     0  00:49      7.21    1.05    1.00
  1284                 CONDUIT      4.31     0  01:00      3.41    0.26    0.67
  1285                 CONDUIT      4.80     0  00:46      3.24    0.57    1.00
  1288                 CONDUIT    114.69     0  00:46      9.10    0.79    1.00
  1289                 CONDUIT     42.74     0  00:53      7.20    1.00    1.00
  1290                 CONDUIT      6.54     0  00:49      3.06    0.60    1.00
  1291                 CONDUIT     58.60     0  00:50     10.29    1.16    1.00
  1293                 CONDUIT     74.28     0  00:50      7.72    2.86    1.00
  1294                 CONDUIT      4.97     0  00:47      6.43    1.02    1.00
  1297                 CONDUIT      3.59     0  00:50      4.57    1.01    1.00
  1298                 CONDUIT      5.73     0  00:46      7.57    0.97    1.00
  1299                 CONDUIT      0.00     0  02:00      0.43    0.00    0.04
  1300                 CONDUIT      0.01     0  00:31      1.95    0.00    0.39
  1306                 CONDUIT     68.93     0  00:54      8.97    1.69    0.96
  1307                 CONDUIT    122.89     0  01:04      9.61    2.00    1.00
  1308                 CONDUIT     46.23     0  00:46      7.65    1.38    1.00
  1312                 CONDUIT      5.57     0  00:49      5.14    1.16    1.00
  1314                 CONDUIT      3.19     0  00:48      4.12    0.43    1.00
  1315                 CONDUIT     62.31     0  00:54      9.13    0.91    0.67
  1316                 CONDUIT      0.00     0  02:00      1.38    0.00    0.51
  1317                 CONDUIT     63.11     0  01:15      7.61    1.14    1.00
  1328                 CONDUIT      2.95     0  00:48      5.58    0.95    1.00
  136OF                CONDUIT    702.99     0  00:48      6.06    1.48    1.00
  13OF                 CONDUIT    169.88     0  00:55      4.14    0.58    0.79
  140OF                CONDUIT    675.45     0  01:04      5.82    1.94    1.00
  144                  CONDUIT     20.34     0  00:53      7.42    0.94    0.84
  144OF                CONDUIT    740.57     0  00:53      8.04    0.61    0.84
  150OF                CONDUIT    565.95     0  00:51      7.19    0.19    0.69
  158                  CONDUIT     54.45     0  01:15      8.02    0.42    1.00
  158OF                CONDUIT    640.67     0  01:15      5.52    0.42    1.00
  15OF                 CONDUIT    169.75     0  00:55      4.41    0.81    0.74
  163OF                CONDUIT    742.80     0  00:53      6.40    0.64    1.00
  166OF                CONDUIT     75.31     0  00:43      1.18    0.11    1.00
  1791OF               CONDUIT    225.60     0  00:46      2.99    0.31    1.00
  179OF                CONDUIT    432.84     0  00:50      3.73    0.52    1.00
  17OF                 CONDUIT    670.53     0  00:52      6.61    0.65    0.89
  183OF                CONDUIT    908.23     0  00:50      7.83    0.92    1.00
  187OF                CONDUIT    631.91     0  01:15      5.45    1.14    1.00
  18OF                 CONDUIT    169.81     0  00:53      3.80    0.86    0.86
  191OF                CONDUIT    619.34     0  00:54      5.71    1.10    1.00
  19OF                 CONDUIT      6.38     0  00:50      0.12    0.01    0.50
  200                  CONDUIT      4.46     0  00:49      5.20    0.99    0.71
  200OF                CONDUIT    531.33     0  00:53      5.46    0.56    0.86
  201OF                CONDUIT    287.92     0  00:50      3.81    1.22    0.69
  205OF                CONDUIT    624.86     0  00:50      5.39    0.53    1.00
  209OFA               CONDUIT    844.23     0  00:52      3.20    0.32    1.00
  229OF                CONDUIT   1269.97     0  00:58      4.81    0.67    1.00
  229OFB               CONDUIT      0.98     0  00:57      1.52    0.81    1.00
  232OF                CONDUIT    792.37     0  00:49      6.83    3.64    1.00
  244OF                CONDUIT    644.13     0  00:50      6.94    0.35    0.82
  257OF                CONDUIT    362.25     0  00:49      4.33    0.20    0.82
  25OF                 CONDUIT      0.55     0  00:51      0.03    0.00    0.18
  2601OF               CONDUIT    588.55     0  00:51      5.07    2.21    1.00
  260OF                CONDUIT    237.44     0  01:36      2.05    0.72    1.00
  267OF                CONDUIT    590.92     0  00:50      6.73    0.37    0.78
  269OF                CONDUIT   1188.51     0  00:52      6.69    0.32    1.00
  276OF                CONDUIT    598.93     0  00:51      5.92    0.51    0.89
  281OF                CONDUIT    744.88     0  00:50      6.42    2.93    1.00
  2851OF               CONDUIT    350.50     0  00:50      4.26    0.66    0.74
  285OF                CONDUIT    632.85     0  00:50      7.17    0.22    0.40
  297OF                CONDUIT    383.56     0  00:50      3.31    0.74    1.00
  306OF                CONDUIT    952.32     0  00:51      8.54    0.66    1.00
  3084                 CONDUIT     19.33     0  00:49      3.94    0.24    1.00
  3091                 CONDUIT     19.08     0  00:48      3.92    0.07    1.00
  31OF                 CONDUIT    282.62     0  00:50      3.89    0.17    0.68
  3231OF               CONDUIT   1006.84     0  00:50      5.77    0.41    0.71
  323OF                CONDUIT    998.03     0  00:51      8.76    1.48    1.00
  325OF                CONDUIT    220.44     0  00:52      2.09    0.24    1.00
  3289                 CONDUIT     60.65     0  00:53     10.91    3.14    1.00
  3293                 CONDUIT     15.77     0  01:08      4.62    0.23    1.00
  32OF                 CONDUIT    196.82     0  00:50      4.00    1.00    0.94
  3339                 CONDUIT     18.45     0  00:51      4.00    1.40    1.00
  3349                 CONDUIT     37.94     0  00:51      8.12    0.85    1.00
  3355                 CONDUIT      1.70     0  00:49      3.19    2.18    1.00
  3423                 CONDUIT     27.57     0  00:48      5.62    1.51    1.00
  3424                 CONDUIT     28.32     0  00:48      5.77    0.98    1.00
  348OF                CONDUIT    652.83     0  00:48      5.63    0.17    1.00
  3493                 CONDUIT     10.78     0  00:48      8.89    1.08    1.00
  3510                 CONDUIT     23.77     0  00:51      4.00    0.79    1.00
  3511                 CONDUIT      3.40     0  00:57      3.44    0.81    1.00
  351OF                CONDUIT    748.43     0  00:48      6.65    0.22    1.00
  3521                 CONDUIT      4.95     0  00:50      6.41    1.81    1.00
  3527                 CONDUIT      3.06     0  00:56      5.87    0.88    1.00
  3629                 CONDUIT      0.00     0  02:00      0.00    0.00    0.00
  3656                 CONDUIT     26.07     0  01:37      3.55    0.75    1.00
  3682                 CONDUIT      1.24     0  00:43      1.95    0.48    1.00
  3690                 CONDUIT     32.01     0  00:58      4.50    1.03    1.00
  371OF                CONDUIT   1155.27     0  00:50     12.51    0.46    0.82
  3843                 CONDUIT      0.00     0  01:30      0.00    0.00    0.00
  384OF                CONDUIT    572.57     0  00:51      4.94    0.53    1.00
  3860                 CONDUIT      0.01     0  01:52      1.02    0.00    0.39
  3873                 CONDUIT      3.93     0  00:47      5.81    0.58    0.88
  387OF                CONDUIT   1162.15     0  00:50      7.30    0.29    0.66
  4030                 CONDUIT    168.75     0  01:03      8.28    0.18    0.71
  4043                 CONDUIT     10.15     0  00:49      8.80    0.72    1.00
  407OF                CONDUIT    382.79     0  00:50      4.76    0.25    0.72
  4103                 CONDUIT     36.57     0  00:52      8.86    0.71    0.81
  4117                 CONDUIT      0.28     0  00:50      0.12    0.00    0.29
  4130                 CONDUIT      0.01     0  00:51      0.04    0.00    0.10
  4155                 CONDUIT      4.20     0  00:50      3.42    0.53    1.00
  4195                 CONDUIT    112.36     0  01:17     15.95    0.96    0.96
  4202                 CONDUIT     11.14     0  00:46      6.55    0.98    1.00
  4203                 CONDUIT      3.43     0  00:46      3.21    0.72    1.00
  421OF                CONDUIT    523.25     0  00:50      6.75    1.30    0.70
  4220                 CONDUIT     16.48     0  00:50      5.76    0.13    0.61
  4232                 CONDUIT     18.19     0  00:53      5.79    0.64    1.00
  4OF                  CONDUIT    169.97     0  00:54      4.53    0.58    0.73
  5002                 CONDUIT     68.51     0  00:50      9.43    1.89    1.00
  5003                 CONDUIT      6.82     0  00:48      8.69    0.98    1.00
  77OF                 CONDUIT   1015.56     0  00:50      8.77    1.04    1.00
  7OF                  CONDUIT    441.60     0  00:58      4.18    0.98    0.96
  879OF                CONDUIT    195.16     0  00:51      3.86    0.81    0.94
  882OF                CONDUIT     16.05     0  00:57      0.44    0.03    0.42
  893OF                CONDUIT    321.50     0  00:51      4.17    0.20    0.69
  8941OF               CONDUIT    192.11     0  00:50      4.69    0.20    0.39
  894OF                CONDUIT    324.10     0  00:50      7.86    0.20    0.39
  9561OF               CONDUIT    184.70     0  00:51      2.90    0.20    0.69
  9562OF               CONDUIT     66.78     0  00:51      2.22    0.13    0.29
  956OF                CONDUIT    156.00     0  00:51      2.69    0.20    0.55
  95OF                 CONDUIT    573.92     0  00:50      7.35    0.45    0.70
  974OF                CONDUIT    539.45     0  00:51      4.72    0.68    1.00
  982OF                CONDUIT    358.02     0  00:51      3.29    1.50    1.00
  989OF                CONDUIT    408.86     0  00:49      3.53    0.25    1.00
  CDT-101              CONDUIT      0.37     0  01:49      1.91    1.27    1.00
  CDT-103              CONDUIT      0.32     0  01:07      1.63    0.93    1.00
  CDT-105              CONDUIT      0.51     0  01:49      2.62    2.34    1.00
  CDT-107              CONDUIT      0.72     0  01:44      3.70    1.70    1.00
  CDT-109              CONDUIT      0.91     0  01:43      5.30    1.03    0.87
  CDT-11               CONDUIT     44.38     0  00:59      6.29    1.60    1.00
  CDT-111              CONDUIT      0.37     0  01:49      1.87    0.55    1.00
  CDT-113              CONDUIT      0.39     0  01:22      2.00    1.24    1.00
  CDT-115              CONDUIT      0.31     0  01:49      1.57    0.52    1.00
  CDT-117              CONDUIT      0.36     0  01:12      1.86    1.05    1.00
  CDT-119              CONDUIT      0.47     0  01:10      2.44    1.43    1.00
  CDT-121              CONDUIT      0.69     0  01:49      3.53    1.23    1.00
  CDT-123              CONDUIT      0.68     0  01:33      3.44    1.07    1.00
  CDT-125              CONDUIT      0.68     0  01:33      4.64    1.14    0.70
  CDT-127              CONDUIT      0.68     0  01:24      2.56    0.09    0.41
  CDT-129              CONDUIT      0.39     0  01:50      2.45    0.51    0.75
  CDT-13               CONDUIT     45.38     0  00:59      8.18    1.42    1.00
  CDT-131              CONDUIT      0.22     0  01:32      1.20    0.48    1.00
  CDT-133              CONDUIT      0.00     0  01:19      1.06    0.00    0.04
  CDT-135              CONDUIT      0.01     0  00:02      1.47    0.00    0.51
  CDT-137              CONDUIT      5.76     0  01:18      3.82    0.60    1.00
  CDT-141              CONDUIT      5.10     0  01:15      3.00    0.68    1.00
  CDT-143              CONDUIT      6.79     0  01:46      3.84    1.66    1.00
  CDT-147              CONDUIT      0.00     0  00:00      0.00    0.00    1.00
  CDT-149              CONDUIT     11.74     0  00:49      7.20    0.74    1.00
  CDT-15               CONDUIT     43.51     0  00:55     13.15    0.35    1.00
  CDT-151              CONDUIT     16.45     0  00:46     11.24    1.99    1.00
  CDT-153              CONDUIT     13.32     0  00:49     10.09    1.03    1.00
  CDT-155              CONDUIT      9.38     0  01:05      5.85    1.05    1.00
  CDT-157              CONDUIT      3.95     0  00:57      5.89    0.34    1.00
  CDT-159              CONDUIT     11.61     0  02:00      8.79    0.99    0.70
  CDT-161              CONDUIT     13.82     0  01:58     11.72    0.05    0.15
  CDT-163              CHANNEL     42.13     0  00:58      0.74    0.03    0.18
  CDT-165              CHANNEL    350.99     0  01:01      1.90    0.14    0.33
  CDT-167              CHANNEL   1120.17     0  00:59      2.62    0.67    0.48
  CDT-169              CHANNEL    804.18     0  01:06      2.54    0.66    0.73
  CDT-17               CONDUIT      0.34     0  01:55      2.21    0.42    0.73
  CDT-171              CHANNEL   1022.83     0  01:05      3.39    0.33    0.32
  CDT-175              CHANNEL   1017.77     0  01:06      5.16    0.03    0.13
  CDT-19               CONDUIT      0.80     0  01:33      4.12    1.00    1.00
  CDT-21               CONDUIT      1.13     0  01:26      5.85    1.07    1.00
  CDT-23               CONDUIT      5.10     0  01:27      7.03    0.70    1.00
  CDT-25               CONDUIT      0.63     0  01:54      3.52    0.96    1.00
  CDT-27               CONDUIT      1.12     0  01:49      5.72    1.00    1.00
  CDT-29               CONDUIT      1.11     0  01:27      5.65    1.05    1.00
  CDT-31               CONDUIT      3.98     0  01:27      5.28    1.38    1.00
  CDT-33               CONDUIT      0.86     0  01:54      4.36    1.05    1.00
  CDT-35               CONDUIT      1.10     0  01:40      5.61    0.99    1.00
  CDT-37               CONDUIT      1.18     0  01:26      6.01    1.04    1.00
  CDT-39               CONDUIT      2.50     0  01:26      3.18    1.14    1.00
  CDT-41               CONDUIT      0.25     0  01:54      1.29    0.43    1.00
  CDT-43               CONDUIT      0.66     0  01:26      3.40    1.59    1.00
  CDT-45               CONDUIT      1.14     0  01:54      5.80    1.00    1.00
  CDT-47               CONDUIT      0.85     0  01:10      4.32    1.12    1.00
  CDT-49               CONDUIT      1.14     0  01:16      3.25    1.49    1.00
  CDT-51               CONDUIT      0.34     0  01:28      1.74    0.62    1.00
  CDT-53               CONDUIT      0.94     0  01:49      5.41    1.61    0.83
  CDT-55               CONDUIT      1.32     0  01:49      7.56    0.71    0.83
  CDT-57               CONDUIT      0.45     0  01:06      2.31    1.05    1.00
  CDT-59               CONDUIT      0.64     0  01:48      3.27    1.86    1.00
  CDT-61               CONDUIT      0.37     0  01:50      3.53    0.41    0.52
  CDT-63               CONDUIT      0.76     0  01:50      4.51    0.67    0.80
  CDT-65               CONDUIT      0.71     0  01:23      3.63    1.32    0.99
  CDT-67               CONDUIT      1.57     0  01:31      6.34    0.89    0.82
  CDT-69               CONDUIT      0.83     0  01:44      4.21    1.00    1.00
  CDT-71               CONDUIT      0.98     0  01:33      4.97    1.00    1.00
  CDT-73               CONDUIT      0.51     0  01:05      2.61    1.01    1.00
  CDT-75               CONDUIT      0.87     0  01:23      4.59    1.34    0.99
  CDT-77               CONDUIT      0.42     0  01:51      2.14    1.06    1.00
  CDT-79               CONDUIT      0.93     0  01:15      4.75    0.99    1.00
  CDT-81               CONDUIT      0.35     0  01:11      1.79    1.14    1.00
  CDT-83               CONDUIT      0.53     0  01:03      2.93    0.99    1.00
  CDT-85               CONDUIT      0.61     0  01:42      3.12    1.01    1.00
  CDT-87               CONDUIT      0.50     0  01:23      2.61    1.03    1.00
  CDT-89               CONDUIT      0.54     0  01:20      2.78    1.01    1.00
  CDT-91               CONDUIT      0.71     0  01:14      3.63    1.27    1.00
  CDT-93               CONDUIT      0.97     0  01:49      5.33    1.19    0.87
  CDT-95               CONDUIT      2.58     0  01:44      6.87    0.29    0.53
  CDT-97               CONDUIT      0.34     0  01:49      1.76    0.59    1.00
  CDT-99               CONDUIT      0.43     0  01:41      2.18    1.53    1.00
  R255                 CHANNEL    461.33     0  01:35      4.24    0.01    0.13
  R26                  CHANNEL    171.66     0  00:55      0.74    0.02    0.36
  R74                  CHANNEL   1249.91     0  00:56      4.15    0.02    0.55
  R83                  CHANNEL    342.10     0  00:53      2.13    0.01    0.43
  RINFLOW              CHANNEL   1056.90     0  00:51      3.63    0.27    0.52
  PUMP-13              PUMP         3.31     0  02:00              0.95
  PUMP-15              PUMP        17.50     0  00:43              1.00
  PUMP-17              PUMP         3.50     0  01:05              1.00
  PUMP-19              PUMP         3.50     0  00:58              1.00
  PUMP1@1115-351       PUMP         0.96     0  00:48              1.00
  ORI-11               ORIFICE     98.03     0  01:04                      0.49
  WEIR1@260-261        WEIR        82.31     0  00:51                      0.97
  OLET-11              DUMMY        0.96     0  00:44
  
  
  ***************************
  Flow Classification Summary
  ***************************
  
  -------------------------------------------------------------------------------------
                      Adjusted    ---------- Fraction of Time in Flow Class ---------- 
                       /Actual         Up    Down  Sub   Sup   Up    Down  Norm  Inlet 
  Conduit               Length    Dry  Dry   Dry   Crit  Crit  Crit  Crit  Ltd   Ctrl  
  -------------------------------------------------------------------------------------
  1001OF                  1.00   0.00  0.00  0.00  1.00  0.00  0.00  0.00  0.00  0.00
  105OF                   1.00   0.00  0.02  0.00  0.98  0.00  0.00  0.00  0.78  0.00
  1114                    4.05   0.00  0.10  0.00  0.81  0.09  0.00  0.00  0.28  0.00
  117                     2.68   0.08  0.00  0.00  0.62  0.29  0.00  0.00  0.50  0.00
  117OF                   1.00   0.09  0.24  0.00  0.57  0.10  0.00  0.00  0.00  0.00
  1209                    1.00   0.00  0.00  0.00  0.26  0.74  0.00  0.00  0.18  0.00
  1211                    1.00   0.00  0.13  0.00  0.35  0.52  0.00  0.00  0.46  0.00
  1225                    1.00   0.00  0.00  0.00  0.99  0.01  0.00  0.00  0.83  0.00
  1226                    1.33   0.00  0.00  0.00  1.00  0.00  0.00  0.00  1.00  0.00
  1228                    2.95   0.11  0.07  0.00  0.06  0.76  0.00  0.00  0.58  0.00
  1230                    1.00   0.00  0.14  0.00  0.76  0.10  0.00  0.00  0.76  0.00
  1249                    1.00   0.00  0.00  0.00  0.61  0.39  0.00  0.00  0.61  0.00
  1269                    1.00   0.00  0.00  0.00  1.00  0.00  0.00  0.00  0.78  0.00
  1270                    1.00   0.00  0.00  0.00  1.00  0.00  0.00  0.00  0.58  0.00
  1275                    1.00   0.00  0.00  0.00  1.00  0.00  0.00  0.00  1.00  0.00
  1276                    1.00   0.00  0.00  0.00  1.00  0.00  0.00  0.00  0.08  0.00
  1277                    1.00   0.00  0.00  0.00  0.14  0.86  0.00  0.00  0.00  0.00
  1281                    1.00   0.00  0.00  0.00  0.84  0.16  0.00  0.00  0.45  0.00
  1284                    1.00   0.00  0.00  0.00  0.74  0.26  0.00  0.00  0.75  0.00
  1285                    1.00   0.00  0.00  0.00  1.00  0.00  0.00  0.00  0.22  0.00
  1288                    1.00   0.00  0.00  0.00  0.85  0.15  0.00  0.00  0.09  0.00
  1289                    1.00   0.00  0.00  0.00  1.00  0.00  0.00  0.00  0.37  0.00
  1290                    1.00   0.11  0.20  0.00  0.70  0.00  0.00  0.00  0.22  0.00
  1291                    2.79   0.00  0.00  0.00  0.87  0.13  0.00  0.00  0.06  0.00
  1293                    1.00   0.00  0.30  0.00  0.70  0.00  0.00  0.00  0.00  0.00
  1294                    1.00   0.00  0.35  0.00  0.65  0.01  0.00  0.00  0.36  0.00
  1297                    1.00   0.06  0.25  0.00  0.69  0.00  0.00  0.00  0.36  0.00
  1298                    1.00   0.00  0.31  0.00  0.59  0.10  0.00  0.00  0.65  0.00
  1299                    1.00   0.00  0.00  0.00  1.00  0.00  0.00  0.00  1.00  0.00
  1300                    1.00   0.00  0.00  0.00  0.50  0.50  0.00  0.00  0.52  0.00
  1306                    1.00   0.04  0.29  0.00  0.67  0.00  0.00  0.00  0.03  0.00
  1307                    1.00   0.07  0.02  0.00  0.82  0.10  0.00  0.00  0.01  0.00
  1308                    1.00   0.07  0.11  0.00  0.75  0.07  0.00  0.00  0.00  0.00
[...]
  CDT-19                  1.00   0.00  0.00  0.00  0.28  0.72  0.00  0.00  0.43  0.00
  CDT-21                  1.00   0.00  0.00  0.00  0.63  0.37  0.00  0.00  0.72  0.00
  CDT-23                  1.00   0.00  0.00  0.00  0.70  0.30  0.00  0.00  0.58  0.00
  CDT-25                  1.00   0.00  0.00  0.00  0.52  0.48  0.00  0.00  0.88  0.00
  CDT-27                  1.00   0.00  0.00  0.00  0.13  0.87  0.00  0.00  0.75  0.00
  CDT-29                  1.00   0.00  0.00  0.00  0.66  0.34  0.00  0.00  0.62  0.00
  CDT-31                  1.00   0.00  0.00  0.00  0.41  0.59  0.00  0.00  0.00  0.00
  CDT-33                  1.00   0.00  0.00  0.00  0.22  0.78  0.00  0.00  0.76  0.00
  CDT-35                  1.00   0.00  0.00  0.00  0.23  0.77  0.00  0.00  0.69  0.00
  CDT-37                  1.00   0.00  0.00  0.00  0.33  0.67  0.00  0.00  0.58  0.00
  CDT-39                  1.00   0.00  0.00  0.00  1.00  0.00  0.00  0.00  0.62  0.00
  CDT-41                  1.00   0.00  0.20  0.00  0.80  0.00  0.00  0.00  0.00  0.54
  CDT-43                  1.00   0.00  0.00  0.00  0.98  0.02  0.00  0.00  0.36  0.00
  CDT-45                  1.00   0.00  0.00  0.00  0.28  0.72  0.00  0.00  0.60  0.00
  CDT-47                  1.00   0.00  0.00  0.00  0.49  0.51  0.00  0.00  0.48  0.00
  CDT-49                  1.00   0.00  0.00  0.00  1.00  0.00  0.00  0.00  0.55  0.00
  CDT-51                  1.00   0.16  0.02  0.00  0.83  0.00  0.00  0.00  0.47  0.00
  CDT-53                  1.00   0.00  0.16  0.00  0.14  0.70  0.00  0.00  0.16  0.00
  CDT-55                  1.00   0.00  0.00  0.00  0.15  0.85  0.00  0.00  1.00  0.00
  CDT-57                  1.00   0.00  0.00  0.00  1.00  0.00  0.00  0.00  0.50  0.00
  CDT-59                  1.00   0.00  0.00  0.00  0.92  0.08  0.00  0.00  0.26  0.00
  CDT-61                  1.00   0.00  0.00  0.00  0.00  1.00  0.00  0.00  0.99  0.00
  CDT-63                  1.00   0.00  0.00  0.00  0.07  0.93  0.00  0.00  1.00  0.00
  CDT-65                  1.00   0.00  0.00  0.00  0.89  0.11  0.00  0.00  0.53  0.00
  CDT-67                  1.00   0.00  0.00  0.00  0.00  1.00  0.00  0.00  0.52  0.00
  CDT-69                  1.00   0.00  0.00  0.00  0.35  0.65  0.00  0.00  0.65  0.00
  CDT-71                  1.00   0.00  0.00  0.00  0.85  0.15  0.00  0.00  0.56  0.00
  CDT-73                  1.00   0.00  0.00  0.00  0.84  0.16  0.00  0.00  0.20  0.00
  CDT-75                  1.00   0.00  0.00  0.00  0.53  0.47  0.00  0.00  0.17  0.00
  CDT-77                  1.00   0.00  0.00  0.00  1.00  0.00  0.00  0.00  0.40  0.00
  CDT-79                  1.00   0.00  0.00  0.00  0.79  0.21  0.00  0.00  0.48  0.00
  CDT-81                  1.00   0.00  0.00  0.00  1.00  0.00  0.00  0.00  0.49  0.00
  CDT-83                  1.00   0.00  0.00  0.00  0.81  0.19  0.00  0.00  0.40  0.00
  CDT-85                  1.00   0.00  0.00  0.00  0.89  0.11  0.00  0.00  0.61  0.00
  CDT-87                  1.00   0.00  0.00  0.00  0.71  0.29  0.00  0.00  0.16  0.00
  CDT-89                  1.00   0.00  0.00  0.00  0.91  0.09  0.00  0.00  0.60  0.00
  CDT-91                  1.00   0.00  0.00  0.00  0.43  0.57  0.00  0.00  0.00  0.00
  CDT-93                  1.00   0.00  0.00  0.00  0.31  0.69  0.00  0.00  0.43  0.00
  CDT-95                  1.00   0.00  0.00  0.00  0.37  0.63  0.00  0.00  0.91  0.00
  CDT-97                  1.00   0.00  0.00  0.00  0.94  0.06  0.00  0.00  0.63  0.00
  CDT-99                  1.00   0.00  0.00  0.00  1.00  0.00  0.00  0.00  0.51  0.00
  R255                    2.35   0.35  0.00  0.00  0.65  0.00  0.00  0.00  0.57  0.00
  R26                     1.00   0.00  0.33  0.00  0.67  0.00  0.00  0.00  0.36  0.00
  R74                     1.49   0.24  0.09  0.00  0.67  0.00  0.00  0.00  0.15  0.00
  R83                     1.00   0.24  0.11  0.00  0.65  0.00  0.00  0.00  0.23  0.00
  RINFLOW                 1.00   0.01  0.00  0.00  0.98  0.01  0.00  0.00  0.57  0.00
  
  
  *************************
  Conduit Surcharge Summary
  *************************
  
  ----------------------------------------------------------------------------
                                                           Hours        Hours 
                         --------- Hours Full --------   Above Full   Capacity
  Conduit                Both Ends  Upstream  Dnstream   Normal Flow   Limited
  ----------------------------------------------------------------------------
  1001OF                      0.01      0.08      0.01      0.07         0.01
  105OF                       0.01      0.01      1.30      0.01         0.01
  1114                        1.20      1.20      1.32      0.01         0.01
  117                         0.01      0.01      0.25      0.01         0.01
  117OF                       1.13      1.13      1.24      0.47         0.01
  1209                        0.01      0.56      0.01      0.22         0.01
  1211                        0.01      0.01      0.28      0.01         0.01
  1225                        0.26      0.26      0.35      0.15         0.01
  1230                        0.01      0.01      1.28      0.01         0.01
  1249                        0.01      0.01      0.06      0.01         0.01
  1269                        0.01      0.01      0.24      0.01         0.01
  1270                        0.31      0.31      0.33      0.31         0.31
  1277                        0.01      0.31      0.01      0.25         0.01
  1281                        0.14      0.16      0.78      0.01         0.01
  1284                        0.01      0.01      1.21      0.01         0.01
  1285                        1.21      1.21      1.28      0.01         0.01
  1288                        1.21      1.21      1.23      0.01         0.01
  1289                        1.21      1.21      1.26      0.01         0.02
  1290                        0.78      0.78      1.27      0.01         0.01
  1291                        0.49      0.49      0.61      0.01         0.01
  1293                        0.71      0.71      0.75      0.44         0.01
  1294                        0.23      0.23      1.20      0.01         0.01
  1297                        0.14      0.14      1.34      0.01         0.01
  1298                        0.14      0.14      1.32      0.01         0.01
  1306                        0.01      0.01      1.26      0.95         0.01
  1307                        0.23      0.23      0.96      0.97         0.01
  1308                        1.23      1.24      1.23      0.39         0.37
  1312                        0.02      0.13      0.02      0.13         0.02
  1314                        0.08      0.08      1.35      0.01         0.01
  1316                        0.01      0.01      0.39      0.01         0.01
  1317                        0.82      0.82      0.88      0.45         0.45
  1328                        0.19      0.19      1.28      0.01         0.01
  136OF                       1.26      1.26      1.30      0.99         0.01
  140OF                       1.24      1.24      1.26      1.02         0.01
  144                         0.01      0.01      1.30      0.01         0.01
  144OF                       0.01      0.01      1.30      0.01         0.01
  150OF                       0.01      0.01      0.18      0.01         0.01
  158                         0.88      0.88      1.26      0.01         0.01
  158OF                       1.04      1.04      1.30      0.01         0.01
  163OF                       1.22      1.22      1.30      0.01         0.01
  166OF                       0.97      0.97      1.28      0.01         0.01
  1791OF                      0.35      0.35      1.22      0.01         0.01
  179OF                       0.35      0.35      1.24      0.01         0.01
  17OF                        0.01      0.01      0.18      0.01         0.01
  183OF                       0.18      0.18      1.22      0.01         0.01
  187OF                       0.97      0.97      1.04      0.45         0.45
  18OF                        0.01      0.07      0.01      0.01         0.01
  191OF                       0.01      0.18      0.01      0.15         0.01
  19OF                        0.01      0.01      0.01      0.01         0.01
  200                         0.01      0.13      0.01      0.01         0.01
  200OF                       0.01      0.01      1.21      0.01         0.01
  201OF                       0.01      0.01      0.29      0.11         0.01
  205OF                       0.35      0.35      1.24      0.01         0.01
  209OFA                      0.81      0.81      1.22      0.01         0.01
  229OF                       0.18      0.18      0.74      0.01         0.01
  229OFB                      0.81      0.81      1.06      0.01         0.01
  232OF                       0.97      0.97      1.01      0.29         0.01
  244OF                       0.01      0.01      1.24      0.01         0.01
  257OF                       0.01      0.01      1.32      0.01         0.01
  2601OF                      0.90      0.90      0.90      0.43         0.40
  260OF                       0.90      0.90      0.97      0.01         0.01
  267OF                       0.01      0.01      0.18      0.01         0.01
  269OF                       0.18      0.18      1.22      0.01         0.01
  276OF                       0.01      0.01      1.01      0.01         0.01
  281OF                       0.90      0.90      0.95      0.45         0.01
  297OF                       0.74      0.74      0.95      0.01         0.01
  306OF                       0.03      0.03      0.95      0.01         0.01
  3084                        0.06      0.06      1.24      0.01         0.01
  3091                        1.19      1.19      1.24      0.01         0.01
  31OF                        0.01      0.01      1.18      0.01         0.01
  3231OF                      0.01      0.01      0.25      0.01         0.01
  323OF                       0.03      0.03      0.67      0.13         0.01
  325OF                       0.06      0.06      0.33      0.01         0.01
  3289                        0.01      0.01      1.26      1.26         0.01
  3293                        0.01      0.01      0.16      0.01         0.01
  32OF                        0.01      0.01      0.01      0.01         0.01
  3339                        0.16      0.16      0.17      0.02         0.02
  3349                        0.17      0.17      0.49      0.01         0.01
  3355                        0.06      0.53      0.06      0.55         0.06
  3423                        0.31      0.31      0.34      0.01         0.01
  3424                        0.34      0.34      0.49      0.01         0.01
  348OF                       1.19      1.19      1.25      0.01         0.01
  3493                        0.01      0.01      0.16      0.10         0.01
  3510                        0.61      0.61      0.81      0.01         0.01
  3511                        0.78      0.78      1.01      0.01         0.01
  351OF                       1.11      1.11      1.25      0.01         0.01
  3521                        0.23      0.23      1.30      0.38         0.01
  3527                        0.06      0.06      1.36      0.01         0.01
  3656                        0.76      0.76      0.82      0.01         0.01
  3682                        1.17      1.17      1.30      0.01         0.01
  3690                        0.70      0.70      0.78      0.14         0.16
  371OF                       0.01      0.01      0.67      0.01         0.01
  384OF                       1.11      1.11      1.23      0.01         0.01
  3873                        0.01      0.01      1.34      0.01         0.01
  387OF                       0.01      0.01      0.34      0.01         0.01
  4043                        0.02      0.02      1.26      0.01         0.01
  407OF                       0.01      0.01      1.30      0.01         0.01
  4103                        0.01      0.01      0.11      0.01         0.01
  4155                        1.22      1.22      1.26      0.01         0.01
  4195                        0.01      0.01      0.84      0.01         0.01
  4202                        0.23      0.23      1.25      0.01         0.01
  4203                        1.22      1.22      1.27      0.01         0.01
  421OF                       0.01      0.04      0.01      0.10         0.01
  4220                        0.01      0.01      1.09      0.01         0.01
  4232                        1.22      1.22      1.30      0.01         0.01
  5002                        0.19      0.78      0.19      0.85         0.19
  5003                        0.07      0.07      0.30      0.01         0.01
  77OF                        1.12      1.13      1.16      0.07         0.05
  7OF                         0.01      0.18      0.01      0.01         0.01
  879OF                       0.01      0.01      0.07      0.01         0.01
  893OF                       0.01      0.01      1.23      0.01         0.01
  9561OF                      0.01      0.01      1.19      0.01         0.01
  974OF                       0.40      0.40      0.95      0.01         0.01
  982OF                       0.33      0.33      0.40      0.01         0.02
  989OF                       0.82      0.82      1.25      0.01         0.01
  CDT-101                     0.87      0.87      0.88      0.40         0.01
  CDT-103                     0.88      0.88      0.93      0.01         0.01
  CDT-105                     0.88      0.93      0.88      0.95         0.88
  CDT-107                     0.24      0.88      0.24      0.88         0.24
  CDT-109                     0.01      0.24      0.01      0.14         0.01
  CDT-11                      0.21      0.26      0.37      0.22         0.13
  CDT-111                     0.49      0.49      0.88      0.01         0.01
  CDT-113                     0.62      0.66      0.62      0.26         0.18
  CDT-115                     0.48      0.48      0.80      0.01         0.01
  CDT-117                     0.80      0.80      0.86      0.02         0.02
  CDT-119                     0.82      0.86      0.82      0.44         0.38
  CDT-121                     0.82      0.82      0.83      0.78         0.78
  CDT-123                     0.83      0.83      0.85      0.83         0.83
  CDT-125                     0.01      0.85      0.01      0.83         0.01
  CDT-129                     0.01      0.01      0.83      0.01         0.01
  CDT-13                      0.26      0.37      0.70      0.18         0.01
  CDT-131                     0.78      0.78      0.86      0.01         0.01
  CDT-135                     0.01      0.01      1.19      0.01         0.01
  CDT-137                     0.83      0.83      0.90      0.01         0.01
  CDT-141                     0.70      0.70      0.83      0.01         0.01
  CDT-143                     0.69      0.69      0.70      0.13         0.14
  CDT-147                     0.69      1.17      0.69      0.01         0.69
  CDT-149                     1.17      1.17      1.24      0.01         0.01
  CDT-15                      0.70      0.70      1.15      0.01         0.01
  CDT-151                     1.23      1.23      1.24      1.08         0.01
  CDT-153                     1.18      1.18      1.23      0.01         0.01
  CDT-155                     0.88      0.88      1.18      0.09         0.01
  CDT-157                     0.88      0.88      1.04      0.01         0.01
  CDT-159                     0.01      0.88      0.01      0.01         0.01
  CDT-17                      0.01      0.01      0.52      0.01         0.01
  CDT-19                      0.52      0.52      0.55      0.01         0.01
  CDT-21                      0.55      0.55      0.78      0.10         0.04
  CDT-23                      0.54      0.54      1.14      0.01         0.01
  CDT-25                      0.22      0.22      0.24      0.01         0.01
  CDT-27                      0.24      0.24      0.56      0.01         0.01
  CDT-29                      0.56      0.56      0.96      0.01         0.01
  CDT-31                      0.54      0.75      0.54      0.38         0.17
  CDT-33                      0.41      0.41      0.44      0.31         0.31
  CDT-35                      0.44      0.44      0.61      0.01         0.01
  CDT-37                      0.61      0.61      0.94      0.07         0.07
  CDT-39                      0.72      0.72      0.75      0.18         0.18
  CDT-41                      0.23      0.23      0.72      0.01         0.01
  CDT-43                      0.55      0.72      0.55      0.51         0.33
  CDT-45                      0.55      0.55      0.83      0.21         0.21
  CDT-47                      0.83      0.83      0.92      0.83         0.83
  CDT-49                      0.84      0.86      0.84      0.36         0.31
  CDT-51                      0.58      0.58      0.72      0.01         0.01
  CDT-53                      0.01      0.72      0.01      0.71         0.01
  CDT-55                      0.01      0.01      0.91      0.01         0.01
  CDT-57                      0.91      0.91      0.93      0.09         0.09
  CDT-59                      0.93      0.93      0.94      0.96         0.93
  CDT-63                      0.01      0.01      0.64      0.01         0.01
  CDT-65                      0.01      0.64      0.01      0.70         0.01
  CDT-69                      0.62      0.62      0.69      0.01         0.01
  CDT-71                      0.69      0.69      1.21      0.01         0.01
  CDT-73                      1.21      1.21      1.28      1.10         1.11
  CDT-75                      0.01      1.28      0.01      1.28         0.01
  CDT-77                      0.93      0.93      0.95      0.89         0.90
  CDT-79                      0.95      0.95      1.21      0.01         0.01
  CDT-81                      0.93      0.93      0.93      0.92         0.93
  CDT-83                      0.93      0.93      0.95      0.01         0.01
  CDT-85                      0.70      0.70      0.74      0.37         0.37
  CDT-87                      0.74      0.74      0.76      0.70         0.70
  CDT-89                      0.76      0.76      0.80      0.73         0.74
  CDT-91                      0.76      0.80      0.76      0.27         0.19
  CDT-93                      0.01      0.76      0.01      0.75         0.01
  CDT-97                      0.49      0.49      0.85      0.01         0.01
  CDT-99                      0.85      0.85      0.87      0.82         0.82
  
  
  ***************
  Pumping Summary
  ***************
  
  ---------------------------------------------------------------------------------------------------------
                                                  Min       Avg       Max     Total     Power    % Time Off
                        Percent   Number of      Flow      Flow      Flow    Volume     Usage    Pump Curve
  Pump                 Utilized   Start-Ups       CFS       CFS       CFS  10^6 gal     Kw-hr    Low   High
  ---------------------------------------------------------------------------------------------------------
  PUMP-13                 48.22           1      0.00      2.95      3.31     0.077      6.55    0.0    0.0
  PUMP-15                 62.95           4      0.00     12.36     17.50     0.421     49.17    0.0    0.3
  PUMP-17                  9.03          81      0.00      3.35      3.50     0.016      0.77    0.0   22.3
  PUMP-19                 30.10         109      0.00      3.50      3.50     0.057      3.70    0.0   71.5
  PUMP1@1115-351          60.05           1      0.00      0.96      0.96     0.031      0.42    0.0  100.0
  

  Analysis begun on:  Fri Mar  6 14:32:34 2026
  Analysis ended on:  Fri Mar  6 14:32:35 2026
  Total elapsed time: 00:00:01