
  EPA STORM WATER MANAGEMENT MODEL - VERSION 5.2 (Build 5.2.4)
  ------------------------------------------------------------

  WARNING 02: maximum depth increased for Node A
  WARNING 02: maximum depth increased for Node X
  
  ****************
  Analysis Options
  ****************
  Flow Units ............... MGD
  Process Models:
    Rainfall/Runoff ........ NO
    RDII ................... NO
    Snowmelt ............... NO
    Groundwater ............ NO
    Flow Routing ........... YES
    Ponding Allowed ........ YES
    Water Quality .......... NO
  Flow Routing Method ...... DYNWAVE
  Surcharge Method ......... EXTRAN
  Starting Date ............ 06/07/2012 00:00:00
  Ending Date .............. 06/07/2012 20:00:00
  Antecedent Dry Days ...... 0.0
  Report Time Step ......... 00:15:00
  Routing Time Step ........ 30.00 sec
  Variable Time Step ....... YES
  Maximum Trials ........... 8
  Number of Threads ........ 1
  Head Tolerance ........... 0.005000 ft
  
  
  **************************        Volume        Volume
  Flow Routing Continuity        acre-feet      10^6 gal
  **************************     ---------     ---------
  Dry Weather Inflow .......         0.000         0.000
  Wet Weather Inflow .......         0.000         0.000
  Groundwater Inflow .......         0.000         0.000
  RDII Inflow ..............         0.000         0.000
  External Inflow ..........         5.837         1.902
  External Outflow .........         5.838         1.903
  Flooding Loss ............         0.000         0.000
  Evaporation Loss .........         0.000         0.000
  Exfiltration Loss ........         0.000         0.000
  Initial Stored Volume ....         0.000         0.000
  Final Stored Volume ......         0.000         0.000
  Continuity Error (%) .....        -0.035
  
  
  ***************************
  Time-Step Critical Elements
  ***************************
  Link B.1 (99.84%)
  
  
  ********************************
  Highest Flow Instability Indexes
  ********************************
  All links are stable.
  
  
  *********************************
  Most Frequent Nonconverging Nodes
  *********************************
  Node X (0.05%)
  Node Cout (0.05%)
  Node Yout (0.05%)
  Node B (0.03%)
  Node A (0.03%)
  
  
  *************************
  Routing Time Step Summary
  *************************
  Minimum Time Step           :     6.32 sec
  Average Time Step           :     8.12 sec
  Maximum Time Step           :    30.00 sec
  % of Time in Steady State   :     0.00
  Average Iterations per Step :     2.00
  % of Steps Not Converging   :     0.05
  Time Step Frequencies       :
     30.000 - 13.228 sec      :     3.54 %
     13.228 -  5.833 sec      :    96.46 %
      5.833 -  2.572 sec      :     0.00 %
      2.572 -  1.134 sec      :     0.00 %
      1.134 -  0.500 sec      :     0.00 %
  
  
  ******************
  Node Depth Summary
  ******************
  
  ---------------------------------------------------------------------------------
                                 Average  Maximum  Maximum  Time of Max    Reported
                                   Depth    Depth      HGL   Occurrence   Max Depth
  Node                 Type         Feet     Feet     Feet  days hr:min        Feet
  ---------------------------------------------------------------------------------
  A                    JUNCTION     0.65     0.95    45.08     0  10:00        0.95
  B                    JUNCTION     0.59     0.87    43.93     0  10:00        0.87
  X                    JUNCTION     0.40     0.44    52.61     0  10:00        0.44
  Cout                 OUTFALL      0.57     0.82    42.57     0  10:00        0.82
  Yout                 OUTFALL      0.00     0.00    45.93     0  00:00        0.00
  
  
  *******************
  Node Inflow Summary
  *******************
  
  -------------------------------------------------------------------------------------------------
                                  Maximum  Maximum                  Lateral       Total        Flow
                                  Lateral    Total  Time of Max      Inflow      Inflow     Balance
                                   Inflow   Inflow   Occurrence      Volume      Volume       Error
  Node                 Type           MGD      MGD  days hr:min    10^6 gal    10^6 gal     Percent
  -------------------------------------------------------------------------------------------------
  A                    JUNCTION     0.000    4.563     0  10:00           0         1.9       0.003
  B                    JUNCTION     0.000    4.563     0  10:00           0         1.9      -0.001
  X                    JUNCTION     4.565    4.565     0  10:00         1.9         1.9      -0.029
  Cout                 OUTFALL      0.000    4.563     0  10:00           0         1.9       0.000
  Yout                 OUTFALL      0.000    0.000     0  00:00           0           0       0.000 gal
  
  
  **********************
  Node Surcharge Summary
  **********************
  
  No nodes were surcharged.
  
  
  *********************
  Node Flooding Summary
  *********************
  
  No nodes were flooded.
  
  
  ***********************
  Outfall Loading Summary
  ***********************
  
  -----------------------------------------------------------
                         Flow       Avg       Max       Total
                         Freq      Flow      Flow      Volume
  Outfall Node           Pcnt       MGD       MGD    10^6 gal
  -----------------------------------------------------------
  Cout                  99.91     2.564     4.563       1.902
  Yout                   0.00     0.000     0.000       0.000
  -----------------------------------------------------------
  System                49.95     2.564     4.563       1.902
  
  
  ********************
  Link Flow Summary
  ********************
  
  -----------------------------------------------------------------------------
                                 Maximum  Time of Max   Maximum    Max/    Max/
                                  |Flow|   Occurrence   |Veloc|    Full    Full
  Link                 Type          MGD  days hr:min    ft/sec    Flow   Depth
  -----------------------------------------------------------------------------
  A.1                  CONDUIT     4.563     0  10:00      6.22    0.69    0.63
  A.2                  CONDUIT     0.000     0  00:00      0.00    0.00    0.00
  B.1                  CONDUIT     4.563     0  10:00      8.53    0.60    0.57
  X.1                  CONDUIT     4.563     0  10:00      7.05    0.03    0.12
  
  
  ***************************
  Flow Classification Summary
  ***************************
  
  -------------------------------------------------------------------------------------
                      Adjusted    ---------- Fraction of Time in Flow Class ---------- 
                       /Actual         Up    Down  Sub   Sup   Up    Down  Norm  Inlet 
  Conduit               Length    Dry  Dry   Dry   Crit  Crit  Crit  Crit  Ltd   Ctrl  
  -------------------------------------------------------------------------------------
  A.1                     1.00   0.00  0.00  0.00  0.00  0.00  0.00  1.00  0.00  0.00
  A.2                     1.00   1.00  0.00  0.00  0.00  0.00  0.00  0.00  0.00  0.00
  B.1                     1.00   0.00  0.00  0.00  0.00  1.00  0.00  0.00  0.00  0.00
  X.1                     1.00   0.01  0.00  0.00  0.00  0.00  0.00  0.99  0.00  0.00
  
  
  *************************
  Conduit Surcharge Summary
  *************************
  
  No conduits were surcharged.
  

  Analysis begun on:  Fri Mar  6 14:35:21 2026
  Analysis ended on:  Fri Mar  6 14:35:21 2026
  Total elapsed time: < 1 sec