
  EPA STORM WATER MANAGEMENT MODEL - VERSION 5.2 (Build 5.2.4)
  ------------------------------------------------------------

  
  ERROR 361: could not open external file used for Time Series Irr_Cell_E_Pond.
  
  ERROR 337: cannot open climate file C:\Users\Robert E Dickinson\Desktop\Nate\Temp60_09.txt.
  WARNING 10: crest elevation raised to downstream invert for regulator Link Outlet_Cell_E_Pond

  Analysis begun on:  Fri Mar  6 14:35:21 2026
  Analysis ended on:  Fri Mar  6 14:35:21 2026
  Total elapsed time: < 1 sec