
  EPA STORM WATER MANAGEMENT MODEL - VERSION 5.2 (Build 5.2.4)
  ------------------------------------------------------------

          EXTRAN USER''S MANUAL EXAMPLE PROBLEM 19 
          J.E. BALL SAMPLE DRAINAGE NETWORK # 2 
  
  ****************
  Analysis Options
  ****************
  Flow Units ............... CMS
  Process Models:
    Rainfall/Runoff ........ NO
    RDII ................... NO
    Snowmelt ............... NO
    Groundwater ............ NO
    Flow Routing ........... YES
    Ponding Allowed ........ NO
    Water Quality .......... NO
  Flow Routing Method ...... DYNWAVE
  Surcharge Method ......... EXTRAN
  Starting Date ............ 01/01/1988 00:00:00
  Ending Date .............. 01/01/1988 05:00:00
  Antecedent Dry Days ...... 0.0
  Report Time Step ......... 00:16:40
  Routing Time Step ........ 10.00 sec
  Variable Time Step ....... YES
  Maximum Trials ........... 8
  Number of Threads ........ 1
  Head Tolerance ........... 0.001524 m
  
  
  **************************        Volume        Volume
  Flow Routing Continuity        hectare-m      10^6 ltr
  **************************     ---------     ---------
  Dry Weather Inflow .......         0.000         0.000
  Wet Weather Inflow .......         0.000         0.000
  Groundwater Inflow .......         0.000         0.000
  RDII Inflow ..............         0.000         0.000
  External Inflow ..........         3.264        32.644
  External Outflow .........         3.232        32.322
  Flooding Loss ............         0.000         0.000
  Evaporation Loss .........         0.000         0.000
  Exfiltration Loss ........         0.000         0.000
  Initial Stored Volume ....         0.068         0.680
  Final Stored Volume ......         0.106         1.060
  Continuity Error (%) .....        -0.173
  
  
  ***************************
  Time-Step Critical Elements
  ***************************
  None
  
  
  ********************************
  Highest Flow Instability Indexes
  ********************************
  All links are stable.
  
  
  *********************************
  Most Frequent Nonconverging Nodes
  *********************************
  Convergence obtained at all time steps.
  
  
  *************************
  Routing Time Step Summary
  *************************
  Minimum Time Step           :     8.50 sec
  Average Time Step           :     9.99 sec
  Maximum Time Step           :    10.00 sec
  % of Time in Steady State   :     0.00
  Average Iterations per Step :     2.00
  % of Steps Not Converging   :     0.00
  Time Step Frequencies       :
     10.000 -  5.493 sec      :   100.00 %
      5.493 -  3.017 sec      :     0.00 %
      3.017 -  1.657 sec      :     0.00 %
      1.657 -  0.910 sec      :     0.00 %
      0.910 -  0.500 sec      :     0.00 %
  
  
  ******************
  Node Depth Summary
  ******************
  
  ---------------------------------------------------------------------------------
                                 Average  Maximum  Maximum  Time of Max    Reported
                                   Depth    Depth      HGL   Occurrence   Max Depth
  Node                 Type       Meters   Meters   Meters  days hr:min      Meters
  ---------------------------------------------------------------------------------
  1                    JUNCTION     0.44     0.60    10.60     0  00:33        0.60
  2                    JUNCTION     0.46     0.63     8.71     0  02:48        0.63
  3                    JUNCTION     0.62     0.86     7.11     0  00:55        0.85
  4                    JUNCTION     0.61     0.83     4.38     0  01:31        0.83
  5                    JUNCTION     0.57     0.81    20.33     0  00:45        0.81
  6                    JUNCTION     0.49     0.67    16.93     0  01:07        0.67
  7                    JUNCTION     0.38     0.50    12.95     0  01:25        0.50
  8                    JUNCTION     0.72     0.96     4.27     0  01:35        0.96
  9                    JUNCTION     0.65     0.87     4.06     0  01:40        0.87
  10                   OUTFALL      0.56     0.76     0.38     0  01:40        0.76
  
  
  *******************
  Node Inflow Summary
  *******************
  
  -------------------------------------------------------------------------------------------------
                                  Maximum  Maximum                  Lateral       Total        Flow
                                  Lateral    Total  Time of Max      Inflow      Inflow     Balance
                                   Inflow   Inflow   Occurrence      Volume      Volume       Error
  Node                 Type           CMS      CMS  days hr:min    10^6 ltr    10^6 ltr     Percent
  -------------------------------------------------------------------------------------------------
  1                    JUNCTION     1.000    1.000     0  00:30        11.9        11.9      -0.058
  2                    JUNCTION     0.000    1.009     0  00:34           0        11.9       0.023
  3                    JUNCTION     0.500    1.500     0  02:48        6.01        17.9       0.074
  4                    JUNCTION     0.000    1.547     0  01:09           0        17.9       0.431
  5                    JUNCTION     1.250    1.250     0  00:30        14.8        14.8      -0.178
  6                    JUNCTION     0.000    1.275     0  00:54           0        14.8       0.173
  7                    JUNCTION     0.000    1.264     0  01:11           0        14.8      -0.042
  8                    JUNCTION     0.000    2.771     0  01:22           0        32.6       0.433
  9                    JUNCTION     0.000    2.761     0  01:32           0        32.4       0.319
  10                   OUTFALL      0.000    2.759     0  01:40           0        32.3       0.000
  
  
  **********************
  Node Surcharge Summary
  **********************
  
  No nodes were surcharged.
  
  
  *********************
  Node Flooding Summary
  *********************
  
  No nodes were flooded.
  
  
  ***********************
  Outfall Loading Summary
  ***********************
  
  -----------------------------------------------------------
                         Flow       Avg       Max       Total
                         Freq      Flow      Flow      Volume
  Outfall Node           Pcnt       CMS       CMS    10^6 ltr
  -----------------------------------------------------------
  10                   100.00     1.795     2.759      32.322
  -----------------------------------------------------------
  System               100.00     1.795     2.759      32.322
  
  
  ********************
  Link Flow Summary
  ********************
  
  -----------------------------------------------------------------------------
                                 Maximum  Time of Max   Maximum    Max/    Max/
                                  |Flow|   Occurrence   |Veloc|    Full    Full
  Link                 Type          CMS  days hr:min     m/sec    Flow   Depth
  -----------------------------------------------------------------------------
  1                    CONDUIT     1.009     0  00:34      1.79    0.48    0.50
  2                    CONDUIT     1.000     0  02:48      1.43    0.53    0.61
  3                    CONDUIT     1.547     0  01:09      1.55    0.57    0.54
  4                    CONDUIT     1.516     0  01:21      1.33    0.37    0.49
  5                    CONDUIT     1.275     0  00:54      1.66    0.58    0.53
  6                    CONDUIT     1.264     0  01:11      2.14    0.44    0.43
  7                    CONDUIT     1.256     0  01:25      1.38    0.20    0.44
  8                    CONDUIT     2.761     0  01:32      1.82    0.40    0.40
  9                    CONDUIT     2.759     0  01:40      2.12    0.29    0.35
  
  
  ***************************
  Flow Classification Summary
  ***************************
  
  -------------------------------------------------------------------------------------
                      Adjusted    ---------- Fraction of Time in Flow Class ---------- 
                       /Actual         Up    Down  Sub   Sup   Up    Down  Norm  Inlet 
  Conduit               Length    Dry  Dry   Dry   Crit  Crit  Crit  Crit  Ltd   Ctrl  
  -------------------------------------------------------------------------------------
  1                       1.00   0.00  0.00  0.00  0.96  0.04  0.00  0.00  0.89  0.00
  2                       1.00   0.00  0.00  0.00  1.00  0.00  0.00  0.00  0.96  0.00
  3                       1.00   0.00  0.00  0.00  1.00  0.00  0.00  0.00  0.74  0.00
  4                       1.00   0.00  0.00  0.00  1.00  0.00  0.00  0.00  0.21  0.00
  5                       1.00   0.00  0.00  0.00  0.98  0.02  0.00  0.00  0.31  0.00
  6                       1.00   0.00  0.00  0.00  0.39  0.61  0.00  0.00  0.21  0.00
  7                       1.00   0.00  0.00  0.00  1.00  0.00  0.00  0.00  1.00  0.00
  8                       1.00   0.00  0.00  0.00  1.00  0.00  0.00  0.00  0.02  0.00
  9                       1.00   0.00  0.00  0.00  1.00  0.00  0.00  0.00  0.00  0.00
  
  
  *************************
  Conduit Surcharge Summary
  *************************
  
  No conduits were surcharged.
  

  Analysis begun on:  Fri Mar  6 14:35:21 2026
  Analysis ended on:  Fri Mar  6 14:35:21 2026
  Total elapsed time: < 1 sec