
  EPA STORM WATER MANAGEMENT MODEL - VERSION 5.2 (Build 5.2.4)
  ------------------------------------------------------------

  
  ERROR 171: Curve 14000008_P2 has invalid or out of sequence data.
  
  ERROR 171: Curve 14000008_P3 has invalid or out of sequence data.
  
  ERROR 171: Curve 14000008_P4 has invalid or out of sequence data.
  WARNING 02: maximum depth increased for Node 10000188
  WARNING 02: maximum depth increased for Node 10001468
  WARNING 02: maximum depth increased for Node 10001535

  Analysis begun on:  Fri Mar  6 14:35:21 2026
  Analysis ended on:  Fri Mar  6 14:35:21 2026
  Total elapsed time: < 1 sec