
  EPA STORM WATER MANAGEMENT MODEL - VERSION 5.2 (Build 5.2.4)
  ------------------------------------------------------------

  WARNING 09: time series interval greater than recording interval for Rain Gage RAINGAGE-5
  WARNING 01: wet weather time step reduced to recording interval for Rain Gage RAINGAGE-5
  WARNING 02: maximum depth increased for Node JCT-394
  WARNING 02: maximum depth increased for Node JCT-396
  
  *************
  Element Count
  *************
  Number of rain gages ...... 3
  Number of subcatchments ... 96
  Number of nodes ........... 137
  Number of links ........... 140
  Number of pollutants ...... 2
  Number of land uses ....... 5
  
  
  *****************
  Pollutant Summary
  *****************
                               Ppt.      GW         Kdecay
  Name                 Units   Concen.   Concen.    1/days    CoPollutant
  -----------------------------------------------------------------------
  N                     MG/L      0.00      0.00      0.00
  TSS                   MG/L      0.00      0.00      0.00
  
  
  ***************
  Landuse Summary
  ***************
                         Sweeping   Maximum      Last
  Name                   Interval   Removal     Swept
  ---------------------------------------------------
  COMM                       0.00      0.00      0.00
  OS                         0.00      0.00      0.00
  RDPK                       0.00      0.00      0.00
  RES1                       0.00      0.00      0.00
  RES2                       0.00      0.00      0.00
  
  
  ****************
  Raingage Summary
  ****************
                                                      Data       Recording
  Name                 Data Source                    Type       Interval 
  ------------------------------------------------------------------------
  RAINGAGE-1           10YR                           VOLUME       4 min.
  RAINGAGE-3           EXTREME                        VOLUME       4 min.
  RAINGAGE-5           EXTREME                        VOLUME       4 min.
  
  
  ********************
  Subcatchment Summary
  ********************
  Name                       Area     Width   %Imperv    %Slope Rain Gage            Outlet              
  -----------------------------------------------------------------------------------------------------------
  SUB-1034                   0.69      0.66     44.00    0.4875 RAINGAGE-5           JCT-182             
  SUB-1036                   0.96      0.78     32.65    0.7999 RAINGAGE-5           JCT-186             
  SUB-1038                   2.56      1.27     61.00    0.1061 RAINGAGE-5           JCT-182             
  SUB-1040                   0.55      0.59     63.00    1.7372 RAINGAGE-5           JCT-176             
  SUB-1044                   0.50      0.56     85.00    0.0661 RAINGAGE-5           JCT-338             
  SUB-1046                   5.17      1.81     65.00    0.0597 RAINGAGE-5           JCT-64              
  SUB-1048                   0.51      0.57     94.00    0.8733 RAINGAGE-5           JCT-58              
  SUB-1050                   0.95      0.77     75.00    2.7685 RAINGAGE-5           JCT-382             
  SUB-1052                   0.62      0.62     62.00    0.0442 RAINGAGE-5           JCT-184             
  SUB-1054                   2.65      1.29     42.00    0.4746 RAINGAGE-5           JCT-60              
  SUB-1056                   4.50      1.69     53.00    6.3083 RAINGAGE-5           JCT-54              
  SUB-1058                   0.80      0.71     84.00    0.2211 RAINGAGE-5           JCT-340             
  SUB-1060                   0.22      0.38     76.00    1.3613 RAINGAGE-5           JCT-188             
  SUB-1062                   0.87      0.74     53.00    0.4624 RAINGAGE-5           JCT-312             
  SUB-1086                   2.72      1.31     96.00    0.3253 RAINGAGE-5           JCT-20              
  SUB-1116                   2.17      1.17     85.00   12.6030 RAINGAGE-5           JCT-172             
  SUB-1134                   0.88      0.75     75.00    9.8536 RAINGAGE-5           JCT-124             
  SUB-1136                   1.49      0.97     80.00    3.8483 RAINGAGE-5           JCT-380             
  SUB-1138                   2.09      1.15     84.00    0.2446 RAINGAGE-5           JCT-18              
  SUB-1142                   0.59      0.61     99.00    1.6594 RAINGAGE-5           JCT-14              
  SUB-1144                   1.30      0.91     96.00    0.0119 RAINGAGE-5           JCT-318             
  SUB-1146                   2.17      1.17     90.00    0.1642 RAINGAGE-5           JCT-14              
  SUB-1150                   4.78      1.74     85.00    1.4097 RAINGAGE-5           JCT-10              
  SUB-1152                   1.41      0.95     74.00    0.8046 RAINGAGE-5           JCT-40              
  SUB-1154                   6.36      2.01     66.00    2.5112 RAINGAGE-5           JCT-336             
  SUB-1156                   3.26      1.44     69.00    0.0092 RAINGAGE-5           JCT-190             
  SUB-1158                   0.36      0.47     89.00    0.7853 RAINGAGE-5           JCT-316             
  SUB-1162                   3.03      1.38     92.00    0.6749 RAINGAGE-5           JCT-180             
  SUB-1164                   2.18      1.17     84.00    0.6927 RAINGAGE-5           JCT-44              
  SUB-1166                   1.47      0.96     76.00   11.8709 RAINGAGE-5           JCT-26              
  SUB-1168                   4.25      1.64     78.00    0.6995 RAINGAGE-5           JCT-132             
  SUB-1170                   3.72      1.53     62.00    2.0475 RAINGAGE-5           JCT-22              
  SUB-1172                   1.10      0.83     48.00   12.9970 RAINGAGE-5           JCT-308             
  SUB-1174                   6.68      2.05     44.00    2.2478 RAINGAGE-5           JCT-124             
  SUB-1178                   1.49      0.97     84.00    3.8627 RAINGAGE-5           JCT-324             
  SUB-1182                   1.95      1.11     44.00    0.4152 RAINGAGE-5           JCT-166             
  SUB-1188                   0.29      0.43     32.65    3.8461 RAINGAGE-5           JCT-132             
  SUB-1204                   2.84      1.34     61.00    0.4540 RAINGAGE-5           JCT-322             
  SUB-1226                   2.37      1.22     63.00    0.8906 RAINGAGE-5           JCT-50              
  SUB-1228                   2.11      1.15     85.00    0.6693 RAINGAGE-5           JCT-322             
  SUB-1230                   0.53      0.58     65.00    0.9282 RAINGAGE-5           JCT-68              
  SUB-1232                   1.41      0.94     94.00    1.1058 RAINGAGE-5           JCT-30              
  SUB-1234                   3.24      1.43     75.00   10.3843 RAINGAGE-5           JCT-30              
  SUB-1236                   1.63      1.02     62.00    2.1538 RAINGAGE-5           JCT-46              
  SUB-1238                   3.71      1.53     42.00    0.8554 RAINGAGE-5           JCT-24              
  SUB-1240                   1.56      0.99     53.00    0.3226 RAINGAGE-5           JCT-262             
  SUB-1250                   4.33      1.65     84.00    0.1444 RAINGAGE-5           JCT-320             
  SUB-1252                   9.24      2.42     76.00    2.0066 RAINGAGE-5           JCT-122             
  SUB-1254                   2.53      1.26     53.00    0.4978 RAINGAGE-5           JCT-34              
  SUB-1256                   2.57      1.27     96.00    0.7651 RAINGAGE-5           JCT-32              
  SUB-1258                   2.85      1.34     85.00    0.3804 RAINGAGE-5           JCT-272             
  SUB-1260                   1.58      1.00     75.00    0.4295 RAINGAGE-5           JCT-266             
  SUB-1262                   2.22      1.19     80.00    0.0405 RAINGAGE-5           JCT-48              
  SUB-1264                   2.74      1.32     84.00    0.8927 RAINGAGE-5           JCT-32              
  SUB-1266                   1.09      0.83     99.00    0.0083 RAINGAGE-5           JCT-270             
  SUB-1268                   2.94      1.36     96.00    0.6906 RAINGAGE-5           JCT-274             
  SUB-1274                   1.28      0.90     90.00    0.0273 RAINGAGE-5           JCT-278             
  SUB-1276                   0.51      0.57     85.00    0.5102 RAINGAGE-5           JCT-134             
  SUB-1278                   7.11      2.12     74.00    0.6083 RAINGAGE-5           JCT-278             
  SUB-1282                   2.82      1.33     66.00    0.8686 RAINGAGE-5           JCT-70              
  SUB-1284                   2.39      1.23     69.00    0.6371 RAINGAGE-5           JCT-284             
  SUB-1286                   0.93      0.77     89.00    1.4410 RAINGAGE-5           JCT-204             
  SUB-1288                   0.51      0.57     92.00    0.5177 RAINGAGE-5           JCT-286             
  SUB-1290                  11.78      2.73     84.00    2.5650 RAINGAGE-5           JCT-36              
  SUB-1292                   0.36      0.48     76.00    0.1404 RAINGAGE-5           JCT-288             
  SUB-1298                   7.34      2.15     78.00    0.6884 RAINGAGE-5           JCT-210             
  SUB-1300                   1.70      1.04     62.00    0.6881 RAINGAGE-5           JCT-290             
  SUB-1302                   2.13      1.16     48.00    1.0301 RAINGAGE-5           JCT-136             
  SUB-1304                   1.96      1.11     44.00    0.2027 RAINGAGE-5           JCT-136             
  SUB-1306                   0.87      0.74     84.00    0.1370 RAINGAGE-5           JCT-302             
  SUB-1308                   3.09      1.40     44.00    1.6486 RAINGAGE-5           JCT-354             
  SUB-1310                   0.54      0.59     32.65    4.5122 RAINGAGE-5           JCT-102             
  SUB-1312                   3.34      1.45     61.00   15.3830 RAINGAGE-5           JCT-360             
  SUB-1314                   1.46      0.96     63.00   14.1580 RAINGAGE-5           JCT-294             
  SUB-1320                   3.10      1.40     85.00    0.1469 RAINGAGE-5           JCT-212             
  SUB-1330                   2.36      1.22     65.00    4.6718 RAINGAGE-5           JCT-146             
  SUB-1332                   7.51      2.18     94.00    1.1612 RAINGAGE-5           JCT-212             
  SUB-1334                   0.31      0.44     75.00    1.8165 RAINGAGE-5           JCT-148             
  SUB-1340                  16.43      3.22     62.00    0.0573 RAINGAGE-5           STOR-10             
  SUB-1342                   1.52      0.98     42.00    1.5532 RAINGAGE-5           JCT-232             
  SUB-1344                   5.41      1.85     53.00    0.6611 RAINGAGE-5           JCT-364             
  SUB-1346                   1.83      1.07     84.00    0.0062 RAINGAGE-5           JCT-298             
  SUB-1348                   3.00      1.38     76.00    0.2794 RAINGAGE-5           JCT-296             
  SUB-1350                   6.07      1.96     53.00    0.8193 RAINGAGE-5           JCT-246             
  SUB-1352                  12.76      2.84     96.00    1.0462 RAINGAGE-5           JCT-298             
  SUB-1354                   4.16      1.62     85.00    4.7944 RAINGAGE-5           JCT-244             
  SUB-1356                   5.20      1.81     85.00    0.2537 RAINGAGE-5           JCT-218             
  SUB-1358                   3.51      1.49     80.00    3.2019 RAINGAGE-5           JCT-228             
  SUB-1360                   5.72      1.90     90.00    0.5388 RAINGAGE-5           JCT-218             
  SUB-1362                   2.98      1.37     99.00    0.6413 RAINGAGE-5           JCT-238             
  SUB-1364                   6.42      2.01     96.00    0.0672 RAINGAGE-5           JCT-220             
  SUB-1366                   2.74      1.32     90.00   16.9300 RAINGAGE-5           JCT-238             
  SUB-1368                   0.45      0.53     85.00    2.2757 RAINGAGE-5           JCT-230             
  SUB-1370                   5.38      1.84     90.00   13.9950 RAINGAGE-5           STOR-14             
  SUB-1372                   7.33      2.15     66.00    6.9109 RAINGAGE-5           STOR-16             
  SUB-1374                 120.45      8.76     69.00    0.0500 RAINGAGE-5           JCT-202             
  
  
  ************
  Node Summary
  ************
                                           Invert      Max.    Ponded    External
  Name                 Type                 Elev.     Depth      Area    Inflow  
  -------------------------------------------------------------------------------
  JCT-10               JUNCTION           5298.89      4.50       0.0
  JCT-102              JUNCTION           5190.74      9.50       0.0
  JCT-104              JUNCTION           5179.16     17.50       0.0
  JCT-106              JUNCTION           5193.50      4.50       0.0
  JCT-110              JUNCTION           5181.91     19.50       0.0
  JCT-12               JUNCTION           5300.63      4.50       0.0
  JCT-122              JUNCTION           5201.40      6.50       0.0
  JCT-124              JUNCTION           5192.21      4.50       0.0
  JCT-132              JUNCTION           5274.15      4.00       0.0
  JCT-134              JUNCTION           5250.06      4.50       0.0
  JCT-136              JUNCTION           5216.81      6.50       0.0
  JCT-14               JUNCTION           5287.78      4.50       0.0
  JCT-146              JUNCTION           5193.94      4.50       0.0
  JCT-148              JUNCTION           5198.36      4.50       0.0
  JCT-166              JUNCTION           5185.93      3.00       0.0
  JCT-170              JUNCTION           5292.82      4.50       0.0
  JCT-172              JUNCTION           5289.47      4.50       0.0
  JCT-174              JUNCTION           5271.02      4.50       0.0
  JCT-176              JUNCTION           5252.69      4.50       0.0
  JCT-178              JUNCTION           5243.92      4.50       0.0
  JCT-18               JUNCTION           5269.46      4.50       0.0
  JCT-180              JUNCTION           5252.60      4.50       0.0
  JCT-182              JUNCTION           5231.19      7.50       0.0
  JCT-184              JUNCTION           5206.77      4.50       0.0
  JCT-186              JUNCTION           5190.10      4.50       0.0
  JCT-188              JUNCTION           5190.98      4.50       0.0
  JCT-190              JUNCTION           5211.52      4.50       0.0
  JCT-192              JUNCTION           5188.20      4.50       0.0
  JCT-194              JUNCTION           5188.39      4.50       0.0
  JCT-196              JUNCTION           5201.29      8.50       0.0
  JCT-198              JUNCTION           5180.48     18.50       0.0
  JCT-20               JUNCTION           5244.64      4.50       0.0
  JCT-200              JUNCTION           5175.60     17.50       0.0
  JCT-202              JUNCTION           5168.63     17.35       0.0
  JCT-204              JUNCTION           5230.86      4.50       0.0
  JCT-210              JUNCTION           5188.65      4.50       0.0
  JCT-212              JUNCTION           5198.93      4.50       0.0
  JCT-216              JUNCTION           5186.03      7.50       0.0
  JCT-218              JUNCTION           5197.82      4.50       0.0
  JCT-22               JUNCTION           5286.86      4.50       0.0
  JCT-220              JUNCTION           5190.68      3.00       0.0
  JCT-222              JUNCTION           5189.85      4.50       0.0
  JCT-228              JUNCTION           5185.27      5.50       0.0
  JCT-230              JUNCTION           5189.81      4.50       0.0
  JCT-232              JUNCTION           5192.61      3.00       0.0
  JCT-238              JUNCTION           5199.50      4.50       0.0
  JCT-24               JUNCTION           5277.48      4.50       0.0
  JCT-240              JUNCTION           5190.57      3.00       0.0
  JCT-244              JUNCTION           5186.42      4.50       0.0
  JCT-246              JUNCTION           5185.35      3.50       0.0
  JCT-248              JUNCTION           5183.64      9.50       0.0
  JCT-250              JUNCTION           5193.07      3.50       0.0
  JCT-256              JUNCTION           5291.33      5.50       0.0
  JCT-258              JUNCTION           5271.11      3.50       0.0
  JCT-26               JUNCTION           5281.56      4.50       0.0
  JCT-260              JUNCTION           5273.57      4.50       0.0
  JCT-262              JUNCTION           5270.48      4.50       0.0
  JCT-266              JUNCTION           5264.81      5.50       0.0
  JCT-270              JUNCTION           5251.72      6.50       0.0
  JCT-272              JUNCTION           5240.13      4.50       0.0
  JCT-274              JUNCTION           5226.23      4.50       0.0
  JCT-276              JUNCTION           5237.09      7.50       0.0
  JCT-278              JUNCTION           5240.80      4.50       0.0
  JCT-284              JUNCTION           5249.85      4.50       0.0
  JCT-286              JUNCTION           5249.37      6.50       0.0
  JCT-288              JUNCTION           5250.95      4.50       0.0
  JCT-290              JUNCTION           5240.67      4.50       0.0
  JCT-294              JUNCTION           5231.12      4.50       0.0
  JCT-296              JUNCTION           5208.99      4.50       0.0
  JCT-298              JUNCTION           5210.81      4.50       0.0
  JCT-30               JUNCTION           5271.18      4.50       0.0
  JCT-300              JUNCTION           5212.05      4.50       0.0
  JCT-302              JUNCTION           5215.09     10.50       0.0
  JCT-304              JUNCTION           5201.57      4.50       0.0
  JCT-306              JUNCTION           5248.58      4.50       0.0
  JCT-308              JUNCTION           5236.08      4.50       0.0
  JCT-310              JUNCTION           5189.08      4.50       0.0
  JCT-312              JUNCTION           5229.44      4.50       0.0
  JCT-314              JUNCTION           5245.45      6.50       0.0
  JCT-316              JUNCTION           5236.65      4.50       0.0
  JCT-318              JUNCTION           5250.94      6.50       0.0
  JCT-32               JUNCTION           5252.57      5.50       0.0
  JCT-320              JUNCTION           5251.96      4.50       0.0
  JCT-322              JUNCTION           5247.91      4.50       0.0
  JCT-324              JUNCTION           5256.80      4.50       0.0
  JCT-326              JUNCTION           5230.94      4.50       0.0
  JCT-328              JUNCTION           5244.42      4.50       0.0
  JCT-330              JUNCTION           5231.81      4.50       0.0
  JCT-334              JUNCTION           5198.48      9.50       0.0
  JCT-336              JUNCTION           5195.83      4.50       0.0
  JCT-338              JUNCTION           5218.00      4.50       0.0
  JCT-34               JUNCTION           5272.35      4.50       0.0
  JCT-340              JUNCTION           5209.32      4.50       0.0
  JCT-342              JUNCTION           5185.42      4.50       0.0
  JCT-344              JUNCTION           5206.36      8.50       0.0
  JCT-346              JUNCTION           5188.97      4.50       0.0
  JCT-348              JUNCTION           5182.23      4.50       0.0
  JCT-350              JUNCTION           5190.01      4.50       0.0
  JCT-352              JUNCTION           5177.53     17.50       0.0
  JCT-354              JUNCTION           5188.81     10.50       0.0
  JCT-356              JUNCTION           5192.62      9.50       0.0
  JCT-358              JUNCTION           5187.02      6.50       0.0
  JCT-36               JUNCTION           5220.46      8.50       0.0
  JCT-360              JUNCTION           5183.24     22.50       0.0
  JCT-364              JUNCTION           5204.87      4.50       0.0
  JCT-366              JUNCTION           5184.17      7.50       0.0
  JCT-370              JUNCTION           5189.72      4.50       0.0
  JCT-372              JUNCTION           5171.18     18.50       0.0
  JCT-374              JUNCTION           5171.89     18.50       0.0    Yes
  JCT-376              JUNCTION           5180.65     12.50       0.0
  JCT-378              JUNCTION           5186.93     11.50       0.0
  JCT-380              JUNCTION           5292.28      5.00       0.0
  JCT-382              JUNCTION           5293.69      3.50       0.0
  JCT-384              JUNCTION           5189.43      9.50       0.0
  JCT-386              JUNCTION           5172.47     14.50       0.0
  JCT-388              JUNCTION           5187.26     11.50       0.0
  JCT-390              JUNCTION           5181.47     10.50       0.0
  JCT-392              JUNCTION           5165.00     18.50       0.0
  JCT-394              JUNCTION           5169.50     17.34       0.0
  JCT-396              JUNCTION           5170.50     17.34       0.0
  JCT-40               JUNCTION           5245.67      4.50       0.0
  JCT-44               JUNCTION           5274.92      4.50       0.0
  JCT-46               JUNCTION           5265.47      5.50       0.0
  JCT-48               JUNCTION           5238.34      6.50       0.0
  JCT-50               JUNCTION           5253.33      4.50       0.0
  JCT-54               JUNCTION           5299.61      4.50       0.0
  JCT-58               JUNCTION           5280.24      4.50       0.0
  JCT-60               JUNCTION           5239.67      4.50       0.0
  JCT-64               JUNCTION           5231.65      4.50       0.0
  JCT-66               JUNCTION           5189.59      4.50       0.0
  JCT-68               JUNCTION           5186.65      4.50       0.0
  JCT-70               JUNCTION           5232.56      4.50       0.0
  OFALL-10             OUTFALL            5164.50     15.89       0.0
  STOR-10              STORAGE            5190.25     12.00       0.0
  STOR-14              STORAGE            5188.82     12.00       0.0
  STOR-16              STORAGE            5182.02      9.00       0.0
  STOR-18              STORAGE            5181.76     10.00       0.0
  
  
  ************
  Link Summary
  ************
  Name             From Node        To Node          Type            Length    %Slope Roughness
  ---------------------------------------------------------------------------------------------
  CDT-101          JCT-304          STOR-10          CONDUIT          247.7    4.5745    0.0130
  CDT-103          JCT-298          JCT-304          CONDUIT          192.0    4.8186    0.0130
  CDT-105          JCT-250          JCT-232          CONDUIT          128.6    0.3623    0.0130
  CDT-107          JCT-58           JCT-176          CONDUIT          367.4    7.5199    0.0130
  CDT-109          JCT-176          JCT-314          CONDUIT          208.2    2.9974    0.0130
  CDT-11           JCT-54           JCT-170          CONDUIT          429.2    1.5831    0.0130
  CDT-111          JCT-306          JCT-314          CONDUIT           89.0    3.5163    0.0130
  CDT-113          JCT-314          JCT-60           CONDUIT          192.4    3.0039    0.0130
  CDT-115          JCT-60           JCT-312          CONDUIT          207.0    4.9476    0.0130
  CDT-117          JCT-312          JCT-122          CONDUIT          560.3    5.0111    0.0130
  CDT-119          JCT-174          JCT-18           CONDUIT           58.8    2.6502    0.0130
  CDT-121          JCT-18           JCT-318          CONDUIT          329.8    5.3197    0.0130
  CDT-123          JCT-180          JCT-318          CONDUIT           46.7    3.5654    0.0130
  CDT-125          JCT-40           JCT-178          CONDUIT           77.9    2.2512    0.0130
  CDT-127          JCT-20           JCT-178          CONDUIT           78.1    0.9233    0.0130
  CDT-129          JCT-318          JCT-40           CONDUIT          134.3    3.9294    0.0130
  CDT-13           JCT-170          JCT-380          CONDUIT           23.1    2.3203    0.0130
  CDT-131          JCT-178          JCT-316          CONDUIT           91.3    7.9822    0.0130
  CDT-133          JCT-316          JCT-308          CONDUIT          116.4    0.4889    0.0130
  CDT-135          JCT-308          JCT-122          CONDUIT          221.0   15.8855    0.0130
  CDT-137          JCT-122          JCT-334          CONDUIT          325.0    0.2831    0.0130
  CDT-139          JCT-322          JCT-328          CONDUIT           68.9    5.0704    0.0130
  CDT-141          JCT-324          JCT-328          CONDUIT           30.7   44.0377    0.0130
  CDT-143          JCT-328          JCT-330          CONDUIT          214.9    5.8782    0.0130
  CDT-145          JCT-330          JCT-326          CONDUIT          101.6    0.8580    0.0130
  CDT-147          JCT-50           JCT-320          CONDUIT           41.7    3.3007    0.0130
  CDT-149          JCT-320          JCT-322          CONDUIT          120.0    3.3764    0.0130
  CDT-15           JCT-256          JCT-172          CONDUIT          232.8    0.7989    0.0130
  CDT-151          JCT-326          JCT-334          CONDUIT           88.3   35.3752    0.0130
  CDT-153          JCT-274          JCT-36           CONDUIT           63.8    9.0870    0.0130
  CDT-155          JCT-36           JCT-196          CONDUIT          459.4    4.1756    0.0130
  CDT-157          JCT-196          JCT-334          CONDUIT          394.5    0.7115    0.0130
  CDT-159          JCT-334          STOR-18          CONDUIT          786.8    2.1259    0.0130
  CDT-161          JCT-64           JCT-338          CONDUIT          255.9    5.3403    0.0130
  CDT-163          JCT-338          JCT-344          CONDUIT          172.2    6.7778    0.0130
  CDT-165          JCT-184          JCT-344          CONDUIT           50.6    0.8176    0.0130
  CDT-167          JCT-182          JCT-344          CONDUIT           77.4   30.8637    0.0130
  CDT-169          JCT-344          JCT-186          CONDUIT          326.6    4.9818    0.0130
  CDT-17           JCT-172          JCT-14           CONDUIT          127.6    1.3268    0.0130
  CDT-171          JCT-186          JCT-342          CONDUIT          182.2    2.5722    0.0130
  CDT-173          JCT-194          JCT-342          CONDUIT          242.3    1.2267    0.0130
  CDT-175          JCT-342          JCT-348          CONDUIT          329.8    0.9672    0.0130
  CDT-177          JCT-336          JCT-188          CONDUIT          480.5    1.0104    0.0130
  CDT-179          JCT-188          JCT-346          CONDUIT          143.3    1.4007    0.0130
  CDT-181          JCT-346          JCT-194          CONDUIT           65.8    0.8761    0.0130
  CDT-183          JCT-310          JCT-346          CONDUIT           26.6    0.4328    0.0130
  CDT-185          JCT-348          JCT-392          CONDUIT          839.3    2.0534    0.0130
  CDT-187          JCT-192          JCT-348          CONDUIT          664.3    0.8993    0.0130
  CDT-189          JCT-124          JCT-192          CONDUIT          359.2    1.1146    0.0130
  CDT-19           JCT-10           JCT-22           CONDUIT          381.3    3.1554    0.0130
  CDT-191          JCT-66           STOR-18          CONDUIT          472.4    1.6577    0.0130
  CDT-193          JCT-68           STOR-18          CONDUIT          191.6    2.5542    0.0130
  CDT-195          JCT-166          STOR-18          CONDUIT          320.4    1.3023    0.0130
  CDT-197          JCT-386          JCT-202          CONDUIT          519.9    1.5080    0.0130
  CDT-199          JCT-202          JCT-392          CONDUIT         1548.0    0.2345    0.0500
  CDT-201          JCT-340          JCT-344          CONDUIT           98.5    1.9933    0.0130
  CDT-203          JCT-106          JCT-350          CONDUIT          430.3    0.8126    0.0130
  CDT-205          JCT-350          JCT-352          CONDUIT          181.8    1.3630    0.0130
  CDT-207          JCT-352          JCT-200          CONDUIT           56.9    3.3986    0.0130
  CDT-209          JCT-198          JCT-104          CONDUIT          142.3    0.9301    0.0130
  CDT-21           JCT-22           JCT-26           CONDUIT          409.5    1.2946    0.0130
  CDT-211          JCT-110          JCT-198          CONDUIT          309.2    0.4605    0.0130
  CDT-213          JCT-104          JCT-352          CONDUIT          298.3    0.5470    0.0130
  CDT-215          JCT-146          JCT-356          CONDUIT           94.9    1.3813    0.0130
  CDT-217          JCT-148          JCT-356          CONDUIT          137.0   -0.1928    0.0130
  CDT-219          JCT-356          JCT-102          CONDUIT          352.5    0.5351    0.0130
  CDT-221          JCT-102          JCT-354          CONDUIT          385.7    0.4994    0.0130
  CDT-223          JCT-354          JCT-104          CONDUIT          468.1    0.7805    0.0130
  CDT-225          JCT-222          STOR-16          CONDUIT          324.5    2.4143    0.0130
  CDT-227          JCT-230          STOR-16          CONDUIT          336.5    2.3169    0.0130
  CDT-229          JCT-220          STOR-14          CONDUIT          226.4    0.8243    0.0130
  CDT-23           JCT-12           JCT-26           CONDUIT          471.9    4.0453    0.0130
  CDT-231          JCT-240          STOR-14          CONDUIT          213.4    0.8236    0.0130
  CDT-233          JCT-238          STOR-14          CONDUIT           99.2   10.8290    0.0130
  CDT-235          JCT-218          STOR-14          CONDUIT          437.1    2.0613    0.0130
  CDT-237          JCT-216          STOR-16          CONDUIT         1526.2    0.2628    0.0130
  CDT-239          JCT-210          JCT-358          CONDUIT           29.3    5.5744    0.0130
  CDT-247          JCT-360          JCT-110          CONDUIT          338.4    0.3942    0.0130
  CDT-249          JCT-358          JCT-360          CONDUIT          132.9    2.0894    0.0130
  CDT-25           JCT-26           JCT-30           CONDUIT          450.5    2.3041    0.0130
  CDT-251          JCT-364          JCT-248          CONDUIT          342.4    6.2108    0.0130
  CDT-255          JCT-246          JCT-366          CONDUIT          235.7    0.4994    0.0130
  CDT-259          JCT-366          JCT-248          CONDUIT          329.7    0.1608    0.0130
  CDT-261          JCT-370          JCT-244          CONDUIT          186.9    1.7660    0.0130
  CDT-263          JCT-228          JCT-244          CONDUIT           50.3   -2.2977    0.0130
  CDT-265          JCT-374          JCT-372          CONDUIT          500.8    0.1418    0.0500
  CDT-267          JCT-228          JCT-372          CONDUIT          111.0   12.7919    0.0130
  CDT-269          JCT-388          JCT-378          CONDUIT          114.0    0.2896    0.0130
  CDT-27           JCT-14           JCT-44           CONDUIT          412.4    3.1195    0.0130
  CDT-271          JCT-378          JCT-376          CONDUIT          671.3    0.9361    0.0130
  CDT-273          JCT-390          JCT-376          CONDUIT          127.1    0.6450    0.0130
  CDT-275          JCT-376          JCT-374          CONDUIT          402.5    2.1759    0.0130
  CDT-277          JCT-372          JCT-396          CONDUIT          633.5    0.1073    0.0500
  CDT-279          JCT-380          JCT-256          CONDUIT           46.1    2.0564    0.0130
  CDT-281          JCT-382          JCT-170          CONDUIT           12.5    7.0003    0.0130
  CDT-283          JCT-384          JCT-216          CONDUIT          399.7    0.8518    0.0130
  CDT-285          JCT-190          JCT-336          CONDUIT          353.7    4.4418    0.0100
  CDT-287          JCT-392          OFALL-10         CONDUIT          128.5    0.3890    0.0500
  CDT-29           JCT-24           JCT-30           CONDUIT          378.1    1.6645    0.0130
  CDT-291          JCT-394          JCT-202          CONDUIT         1285.6    0.0677    0.0500
  CDT-293          JCT-200          JCT-394          CONDUIT          475.4    1.2827    0.0100
  CDT-295          JCT-396          JCT-394          CONDUIT         2079.7    0.0481    0.0500
  CDT-297          JCT-248          JCT-396          CONDUIT          143.0    9.2300    0.0100
  CDT-31           JCT-132          JCT-260          CONDUIT           26.6    2.1927    0.0130
  CDT-33           JCT-44           JCT-260          CONDUIT           30.6    4.4154    0.0130
  CDT-35           JCT-258          JCT-262          CONDUIT           32.0    1.9604    0.0130
  CDT-37           JCT-260          JCT-262          CONDUIT          201.4    1.5346    0.0130
  CDT-39           JCT-262          JCT-46           CONDUIT          244.5    2.0509    0.0130
  CDT-43           JCT-46           JCT-266          CONDUIT           29.8    2.1978    0.0130
  CDT-45           JCT-30           JCT-32           CONDUIT          429.5    4.3370    0.0130
  CDT-49           JCT-32           JCT-270          CONDUIT           41.3    2.0619    0.0130
  CDT-51           JCT-34           JCT-32           CONDUIT          399.2    4.9605    0.0130
  CDT-53           JCT-266          JCT-48           CONDUIT          402.2    6.5953    0.0130
  CDT-55           JCT-272          JCT-276          CONDUIT           21.7   14.1506    0.0130
  CDT-57           JCT-48           JCT-276          CONDUIT           32.3    3.8736    0.0130
  CDT-59           JCT-276          JCT-36           CONDUIT          412.3    4.0366    0.0130
  CDT-61           JCT-134          JCT-284          CONDUIT           30.4    0.6877    0.0130
  CDT-63           JCT-284          JCT-278          CONDUIT          401.0    2.2569    0.0130
  CDT-69           JCT-270          JCT-278          CONDUIT          434.6    2.5128    0.0130
  CDT-71           JCT-278          JCT-70           CONDUIT          306.9    2.6870    0.0130
  CDT-73           JCT-70           JCT-204          CONDUIT          101.3    1.6794    0.0130
  CDT-75           JCT-288          JCT-286          CONDUIT           34.2    4.6181    0.0130
  CDT-77           JCT-286          JCT-204          CONDUIT          431.9    4.2886    0.0130
  CDT-79           JCT-204          JCT-136          CONDUIT          431.5    3.2573    0.0130
  CDT-81           JCT-290          JCT-136          CONDUIT          386.1    6.1905    0.0130
  CDT-87           JCT-136          JCT-302          CONDUIT           45.0    3.8360    0.0130
  CDT-89           JCT-302          JCT-300          CONDUIT          225.7    1.3494    0.0130
  CDT-91           JCT-294          JCT-300          CONDUIT          118.2   16.3522    0.0130
  CDT-93           JCT-300          JCT-212          CONDUIT          366.1    3.5838    0.0130
  CDT-95           JCT-212          STOR-10          CONDUIT          115.5    7.5445    0.0130
  CDT-97           JCT-232          STOR-10          CONDUIT          146.8    1.6082    0.0130
  CDT-99           JCT-296          JCT-304          CONDUIT          224.0    3.3142    0.0130
  ORI-11           STOR-18          JCT-386          ORIFICE     
  ORI-13           STOR-10          JCT-384          ORIFICE     
  ORI-15           STOR-14          JCT-388          ORIFICE     
  ORI-17           STOR-16          JCT-390          ORIFICE     
  WEIR-11          STOR-18          JCT-386          WEIR        
  WEIR-13          STOR-10          JCT-384          WEIR        
  WEIR-15          STOR-14          JCT-388          WEIR        
  WEIR-17          STOR-16          JCT-390          WEIR        
  
  
  *********************
  Cross Section Summary
  *********************
                                        Full     Full     Hyd.     Max.   No. of     Full
  Conduit          Shape               Depth     Area     Rad.    Width  Barrels     Flow
  ---------------------------------------------------------------------------------------
  CDT-101          CIRCULAR             2.50     4.91     0.62     2.50        1    87.73
  CDT-103          CIRCULAR             2.00     3.14     0.50     2.00        1    49.66
  CDT-105          CIRCULAR             1.50     1.77     0.38     1.50        1     6.32
  CDT-107          CIRCULAR             1.50     1.77     0.38     1.50        1    28.81
  CDT-109          CIRCULAR             1.50     1.77     0.38     1.50        1    18.19
  CDT-11           CIRCULAR             2.00     3.14     0.50     2.00        1    28.46
  CDT-111          CIRCULAR             1.50     1.77     0.38     1.50        1    19.70
  CDT-113          CIRCULAR             2.00     3.14     0.50     2.00        1    39.21
  CDT-115          CIRCULAR             2.00     3.14     0.50     2.00        1    50.32
  CDT-117          CIRCULAR             2.00     3.14     0.50     2.00        1    50.64
  CDT-119          CIRCULAR             2.00     3.14     0.50     2.00        1    36.83
  CDT-121          CIRCULAR             2.50     4.91     0.62     2.50        1    94.60
  CDT-123          CIRCULAR             1.50     1.77     0.38     1.50        1    19.83
  CDT-125          CIRCULAR             3.00     7.07     0.75     3.00        1   100.07
  CDT-127          CIRCULAR             2.00     3.14     0.50     2.00        1    21.74
  CDT-129          CIRCULAR             3.00     7.07     0.75     3.00        1   132.22
  CDT-13           CIRCULAR             2.00     3.14     0.50     2.00        1    34.46
  CDT-131          CIRCULAR             3.50     9.62     0.88     3.50        1   284.25
  CDT-133          CIRCULAR             3.50     9.62     0.88     3.50        1    70.35
  CDT-135          CIRCULAR             3.50     9.62     0.88     3.50        1   401.00
  CDT-137          CIRCULAR             4.50    15.90     1.12     4.50        1   104.62
  CDT-139          CIRCULAR             3.00     7.07     0.75     3.00        1   150.19
  CDT-141          CIRCULAR             2.00     3.14     0.50     2.00        1   150.12
  CDT-143          CIRCULAR             3.00     7.07     0.75     3.00        1   161.71
  CDT-145          CIRCULAR             3.00     7.07     0.75     3.00        1    61.78
  CDT-147          CIRCULAR             1.50     1.77     0.38     1.50        1    19.08
  CDT-149          CIRCULAR             2.50     4.91     0.62     2.50        1    75.37
  CDT-15           CIRCULAR             2.50     4.91     0.62     2.50        1    36.66
  CDT-151          CIRCULAR             3.00     7.07     0.75     3.00        1   396.70
  CDT-153          CIRCULAR             2.00     3.14     0.50     2.00        1    68.19
  CDT-155          CIRCULAR             5.00    19.63     1.25     5.00        1   532.20
  CDT-157          CIRCULAR             5.00    19.63     1.25     5.00        1   219.68
  CDT-159          RECT_CLOSED          5.00    40.00     1.54     8.00        1   888.45
  CDT-161          CIRCULAR             2.00     3.14     0.50     2.00        1    52.28
  CDT-163          CIRCULAR             2.00     3.14     0.50     2.00        1    58.90
  CDT-165          CIRCULAR             1.50     1.77     0.38     1.50        1     9.50
  CDT-167          CIRCULAR             1.50     1.77     0.38     1.50        1    58.36
  CDT-169          CIRCULAR             3.00     7.07     0.75     3.00        1   148.87
  CDT-17           CIRCULAR             3.00     7.07     0.75     3.00        1    76.83
  CDT-171          CIRCULAR             3.00     7.07     0.75     3.00        1   106.97
  CDT-173          CIRCULAR             2.50     4.91     0.62     2.50        1    45.43
  CDT-175          CIRCULAR             4.00    12.57     1.00     4.00        1   141.27
  CDT-177          CIRCULAR             2.00     3.14     0.50     2.00        1    22.74
  CDT-179          CIRCULAR             2.50     4.91     0.62     2.50        1    48.54
  CDT-181          CIRCULAR             2.50     4.91     0.62     2.50        1    38.39
  CDT-183          CIRCULAR             1.50     1.77     0.38     1.50        1     6.91
  CDT-185          RECT_CLOSED          4.00    24.00     1.20     6.00        1   443.93
  CDT-187          CIRCULAR             2.00     3.14     0.50     2.00        1    21.45
  CDT-189          CIRCULAR             2.00     3.14     0.50     2.00        1    23.88
  CDT-19           CIRCULAR             1.50     1.77     0.38     1.50        1    18.66
  CDT-191          CIRCULAR             1.50     1.77     0.38     1.50        1    13.52
  CDT-193          CIRCULAR             1.50     1.77     0.38     1.50        1    16.79
  CDT-195          CIRCULAR             1.50     1.77     0.38     1.50        1    11.99
  CDT-197          RECT_CLOSED          2.00    16.00     0.80     8.00        1   193.55
  CDT-199          NORTH               15.89  3601.40    21.24   362.44        1 39748.65
  CDT-201          CIRCULAR             1.50     1.77     0.38     1.50        1    14.83
  CDT-203          CIRCULAR             2.00     3.14     0.50     2.00        1    20.39
  CDT-205          CIRCULAR             2.00     3.14     0.50     2.00        1    26.41
  CDT-207          CIRCULAR             4.00    12.57     1.00     4.00        1   264.81
  CDT-209          CIRCULAR             2.50     4.91     0.62     2.50        1    39.56
  CDT-21           CIRCULAR             1.50     1.77     0.38     1.50        1    11.95
  CDT-211          CIRCULAR             2.50     4.91     0.62     2.50        1    27.83
  CDT-213          CIRCULAR             3.50     9.62     0.88     3.50        1    74.41
  CDT-215          CIRCULAR             1.50     1.77     0.38     1.50        1    12.35
  CDT-217          CIRCULAR             2.00     3.14     0.50     2.00        1     9.93
  CDT-219          CIRCULAR             2.00     3.14     0.50     2.00        1    16.55
  CDT-221          CIRCULAR             2.00     3.14     0.50     2.00        1    15.99
  CDT-223          CIRCULAR             2.50     4.91     0.62     2.50        1    36.24
  CDT-225          CIRCULAR             1.50     1.77     0.38     1.50        1    16.32
  CDT-227          CIRCULAR             1.50     1.77     0.38     1.50        1    15.99
  CDT-229          CIRCULAR             2.00     3.14     0.50     2.00        1    20.54
  CDT-23           CIRCULAR             1.50     1.77     0.38     1.50        1    21.13
  CDT-231          CIRCULAR             2.00     3.14     0.50     2.00        1    20.53
  CDT-233          CIRCULAR             1.50     1.77     0.38     1.50        1    34.57
  CDT-235          CIRCULAR             2.00     3.14     0.50     2.00        1    32.48
  CDT-237          CIRCULAR             4.00    12.57     1.00     4.00        1    73.64
  CDT-239          CIRCULAR             2.00     3.14     0.50     2.00        1    53.41
  CDT-247          CIRCULAR             2.50     4.91     0.62     2.50        1    25.75
  CDT-249          CIRCULAR             2.00     3.14     0.50     2.00        1    32.70
  CDT-25           CIRCULAR             2.00     3.14     0.50     2.00        1    34.34
  CDT-251          CIRCULAR             1.50     1.77     0.38     1.50        1    26.18
  CDT-255          CIRCULAR             2.00     3.14     0.50     2.00        1    15.99
  CDT-259          CIRCULAR             2.50     4.91     0.62     2.50        1    16.45
  CDT-261          CIRCULAR             1.50     1.77     0.38     1.50        1    13.96
  CDT-263          CIRCULAR             1.50     1.77     0.38     1.50        1    15.92
  CDT-265          SOUTH               18.47  2391.46    19.88   250.93        1 19639.21
  CDT-267          CIRCULAR             2.50     4.91     0.62     2.50        1   146.70
  CDT-269          CIRCULAR             4.00    12.57     1.00     4.00        1    77.30
  CDT-27           CIRCULAR             3.00     7.07     0.75     3.00        1   117.80
  CDT-271          CIRCULAR             4.00    12.57     1.00     4.00        1   138.98
  CDT-273          CIRCULAR             3.00     7.07     0.75     3.00        1    53.57
  CDT-275          RECT_CLOSED          3.00    21.00     1.05     7.00        1   365.80
  CDT-277          MIDDLE              17.34  3599.34    18.65   408.43        1 24645.95
  CDT-279          CIRCULAR             2.50     4.91     0.62     2.50        1    58.82
  CDT-281          CIRCULAR             1.50     1.77     0.38     1.50        1    27.79
  CDT-283          CIRCULAR             3.00     7.07     0.75     3.00        1    61.56
  CDT-285          CIRCULAR             1.50     1.77     0.38     1.50        1    28.78
  CDT-287          NORTH               15.89  3601.40    21.24   362.44        1 51196.44
  CDT-29           CIRCULAR             1.50     1.77     0.38     1.50        1    13.55
  CDT-291          MIDDLE              17.34  3599.34    18.65   408.43        1 19568.79
  CDT-293          CIRCULAR             4.00    12.57     1.00     4.00        1   211.49
  CDT-295          MIDDLE              17.34  3599.34    18.65   408.43        1 16495.21
  CDT-297          CIRCULAR             3.00     7.07     0.75     3.00        1   263.43
  CDT-31           CIRCULAR             2.00     3.14     0.50     2.00        1    33.50
  CDT-33           CIRCULAR             3.00     7.07     0.75     3.00        1   140.15
  CDT-35           CIRCULAR             1.50     1.77     0.38     1.50        1    14.71
  CDT-37           CIRCULAR             3.50     9.62     0.88     3.50        1   124.63
  CDT-39           CIRCULAR             3.50     9.62     0.88     3.50        1   144.08
  CDT-43           CIRCULAR             4.00    12.57     1.00     4.00        1   212.95
  CDT-45           CIRCULAR             2.00     3.14     0.50     2.00        1    47.11
  CDT-49           CIRCULAR             2.00     3.14     0.50     2.00        1    32.48
  CDT-51           CIRCULAR             1.50     1.77     0.38     1.50        1    23.40
  CDT-53           CIRCULAR             4.00    12.57     1.00     4.00        1   368.89
  CDT-55           CIRCULAR             1.50     1.77     0.38     1.50        1    39.51
  CDT-57           CIRCULAR             4.00    12.57     1.00     4.00        1   282.71
  CDT-59           CIRCULAR             4.50    15.90     1.12     4.50        1   395.09
  CDT-61           CIRCULAR             1.50     1.77     0.38     1.50        1     8.71
  CDT-63           CIRCULAR             1.50     1.77     0.38     1.50        1    15.78
  CDT-69           CIRCULAR             2.50     4.91     0.62     2.50        1    65.02
  CDT-71           CIRCULAR             2.50     4.91     0.62     2.50        1    67.24
  CDT-73           CIRCULAR             3.00     7.07     0.75     3.00        1    86.44
  CDT-75           CIRCULAR             1.50     1.77     0.38     1.50        1    22.57
  CDT-77           CIRCULAR             1.50     1.77     0.38     1.50        1    21.75
  CDT-79           CIRCULAR             3.00     7.07     0.75     3.00        1   120.38
  CDT-81           CIRCULAR             1.50     1.77     0.38     1.50        1    26.14
  CDT-87           CIRCULAR             3.50     9.62     0.88     3.50        1   197.05
  CDT-89           CIRCULAR             4.00    12.57     1.00     4.00        1   166.86
  CDT-91           CIRCULAR             1.50     1.77     0.38     1.50        1    42.48
  CDT-93           CIRCULAR             4.00    12.57     1.00     4.00        1   271.93
  CDT-95           CIRCULAR             4.50    15.90     1.12     4.50        1   540.14
  CDT-97           CIRCULAR             1.50     1.77     0.38     1.50        1    13.32
  CDT-99           CIRCULAR             1.50     1.77     0.38     1.50        1    19.12
  
  
  ****************
  Transect Summary
  ****************

  Transect MIDDLE
  Area:  
              0.0023     0.0089     0.0175     0.0263     0.0354 
              0.0450     0.0553     0.0664     0.0781     0.0901 
              0.1023     0.1147     0.1274     0.1414     0.1565 
              0.1719     0.1877     0.2036     0.2199     0.2364 
              0.2531     0.2700     0.2872     0.3045     0.3220 
              0.3397     0.3576     0.3758     0.3941     0.4128 
              0.4321     0.4521     0.4725     0.4937     0.5168 
              0.5424     0.5703     0.5996     0.6294     0.6595 
              0.6900     0.7207     0.7516     0.7831     0.8159 
              0.8509     0.8867     0.9231     0.9610     1.0000 
  Hrad:  
              0.0094     0.0193     0.0372     0.0544     0.0709 
              0.0824     0.0962     0.1052     0.1210     0.1364 
              0.1523     0.1675     0.1821     0.1745     0.1881 
              0.2017     0.2163     0.2316     0.2459     0.2603 
              0.2749     0.2892     0.3042     0.3192     0.3330 
              0.3473     0.3616     0.3756     0.3877     0.3985 
              0.3971     0.4065     0.4165     0.4246     0.4263 
              0.7976     0.7950     0.8135     0.8487     0.8820 
              0.8836     0.9184     0.9503     0.9589     0.9292 
              0.9447     0.9661     0.9829     0.9774     1.0000 
  Width: 
              0.1141     0.2171     0.2210     0.2267     0.2334 
              0.2552     0.2684     0.2944     0.3011     0.3078 
              0.3126     0.3186     0.3253     0.3773     0.3872 
              0.3967     0.4037     0.4089     0.4155     0.4218 
              0.4275     0.4333     0.4378     0.4422     0.4481 
              0.4531     0.4580     0.4629     0.4702     0.4789 
              0.5032     0.5142     0.5245     0.5656     0.6139 
              0.6844     0.7308     0.7516     0.7604     0.7700 
              0.7784     0.7822     0.7884     0.8145     0.8766 
              0.8996     0.9169     0.9384     0.9830     1.0000 

  Transect NORTH
  Area:  
              0.0068     0.0142     0.0217     0.0295     0.0374 
              0.0456     0.0546     0.0656     0.0779     0.0907 
              0.1040     0.1177     0.1317     0.1471     0.1640 
              0.1820     0.2003     0.2187     0.2374     0.2563 
              0.2755     0.2949     0.3146     0.3352     0.3570 
              0.3793     0.4022     0.4255     0.4488     0.4723 
              0.4959     0.5197     0.5436     0.5677     0.5919 
              0.6162     0.6406     0.6652     0.6899     0.7148 
              0.7406     0.7675     0.7949     0.8230     0.8519 
              0.8810     0.9103     0.9397     0.9693     1.0000 
  Hrad:  
              0.0138     0.0282     0.0422     0.0559     0.0693 
              0.0803     0.0794     0.0824     0.0918     0.1029 
              0.1138     0.1256     0.1380     0.1477     0.1557 
              0.1482     0.1614     0.1745     0.1870     0.1993 
              0.2108     0.2235     0.2346     0.2426     0.2471 
              0.2562     0.2553     0.2688     0.2820     0.2952 
              0.3079     0.3197     0.3326     0.3453     0.3578 
              0.3707     0.8249     0.8514     0.8776     0.9014 
              0.9267     0.9479     0.9636     0.9763     0.9195 
              0.9453     0.9728     0.9968     1.0137     1.0000 
  Width: 
              0.2290     0.2337     0.2393     0.2444     0.2497 
              0.2627     0.3184     0.3694     0.3930     0.4083 
              0.4236     0.4339     0.4420     0.5089     0.5500 
              0.5686     0.5744     0.5799     0.5871     0.5946 
              0.6042     0.6097     0.6232     0.6619     0.6913 
              0.7063     0.7256     0.7286     0.7321     0.7355 
              0.7401     0.7466     0.7502     0.7545     0.7589 
              0.7621     0.7656     0.7700     0.7744     0.7917 
              0.8244     0.8495     0.8664     0.8875     0.9091 
              0.9137     0.9164     0.9225     0.9352     1.0000 

  Transect SOUTH
  Area:  
              0.0068     0.0164     0.0266     0.0375     0.0497 
              0.0625     0.0756     0.0890     0.1028     0.1168 
              0.1313     0.1460     0.1612     0.1767     0.1924 
              0.2085     0.2249     0.2417     0.2588     0.2762 
              0.2939     0.3118     0.3301     0.3487     0.3675 
              0.3866     0.4061     0.4258     0.4457     0.4659 
              0.4863     0.5071     0.5283     0.5498     0.5717 
              0.5938     0.6162     0.6389     0.6621     0.6857 
              0.7100     0.7350     0.7617     0.7918     0.8234 
              0.8574     0.8919     0.9269     0.9628     1.0000 
  Hrad:  
              0.0134     0.0305     0.0471     0.0594     0.0729 
              0.0880     0.1048     0.1198     0.1349     0.1496 
              0.1639     0.1778     0.1910     0.2060     0.2196 
              0.2326     0.2455     0.2579     0.2708     0.2848 
              0.2986     0.3106     0.3225     0.3354     0.3484 
              0.3605     0.3727     0.3859     0.3990     0.8851 
              0.9087     0.9312     0.9533     0.9762     1.0010 
              1.0267     1.0510     1.0708     1.0901     1.1012 
              1.1122     1.1013     1.0514     0.9944     1.0053 
              0.9691     0.9988     1.0263     1.0514     1.0000 
  Width: 
              0.2410     0.2563     0.2689     0.3002     0.3233 
              0.3362     0.3409     0.3505     0.3589     0.3675 
              0.3765     0.3859     0.3960     0.4018     0.4101 
              0.4192     0.4281     0.4378     0.4461     0.4522 
              0.4582     0.4671     0.4761     0.4831     0.4899 
              0.4977     0.5053     0.5112     0.5170     0.5238 
              0.5324     0.5416     0.5510     0.5598     0.5674 
              0.5742     0.5817     0.5920     0.6026     0.6180 
              0.6338     0.6635     0.7262     0.7957     0.8493 
              0.8864     0.8947     0.9138     0.9390     1.0000 
  
  
  ****************
  Analysis Options
  ****************
  Flow Units ............... CFS
  Process Models:
    Rainfall/Runoff ........ YES
    RDII ................... NO
    Snowmelt ............... NO
    Groundwater ............ NO
    Flow Routing ........... YES
    Ponding Allowed ........ NO
    Water Quality .......... NO
  Infiltration Method ...... HORTON
  Flow Routing Method ...... DYNWAVE
  Surcharge Method ......... EXTRAN
  Starting Date ............ 01/01/2002 00:00:00
  Ending Date .............. 01/01/2002 10:00:00
  Antecedent Dry Days ...... 12.0
  Report Time Step ......... 00:05:00
  Wet Time Step ............ 00:04:59
  Dry Time Step ............ 01:00:00
  Routing Time Step ........ 20.00 sec
  Variable Time Step ....... YES
  Maximum Trials ........... 8
  Number of Threads ........ 1
  Head Tolerance ........... 0.005000 ft
  
  
  **************************        Volume         Depth
  Runoff Quantity Continuity     acre-feet        inches
  **************************     ---------       -------
  Total Precipitation ......      1015.498        30.198
  Evaporation Loss .........         0.000         0.000
  Infiltration Loss ........        59.227         1.761
  Surface Runoff ...........       606.942        18.049
  Final Storage ............       350.564        10.425
  Continuity Error (%) .....        -0.122
  
  
  **************************        Volume        Volume
  Flow Routing Continuity        acre-feet      10^6 gal
  **************************     ---------     ---------
  Dry Weather Inflow .......         0.000         0.000
  Wet Weather Inflow .......       606.122       197.514
  Groundwater Inflow .......         0.000         0.000
  RDII Inflow ..............         0.000         0.000
  External Inflow ..........       841.594       274.246
  External Outflow .........      1095.872       357.106
  Flooding Loss ............       307.105       100.075
  Evaporation Loss .........         0.000         0.000
  Exfiltration Loss ........         0.000         0.000
  Initial Stored Volume ....        72.416        23.598
  Final Stored Volume ......        81.639        26.603
  Continuity Error (%) .....         2.336
  
  
  *************************
  Highest Continuity Errors
  *************************
  Node JCT-392 (1.08%)
  
  
  ***************************
  Time-Step Critical Elements
  ***************************
  Link CDT-273 (54.15%)
  Link CDT-137 (16.42%)
  Link CDT-49 (7.17%)
  Link CDT-263 (5.75%)
  Link CDT-255 (1.64%)
  
  
  ********************************
  Highest Flow Instability Indexes
  ********************************
  Link CDT-71 (21)
  Link CDT-69 (19)
  Link CDT-49 (18)
  Link CDT-183 (16)
  Link CDT-191 (13)
  
  
  *********************************
  Most Frequent Nonconverging Nodes
  *********************************
  Node OFALL-10 (6.95%)
  Node JCT-110 (1.99%)
  Node JCT-360 (1.61%)
  Node JCT-24 (0.82%)
  Node JCT-54 (0.79%)
  
  
  *************************
  Routing Time Step Summary
  *************************
  Minimum Time Step           :     1.15 sec
  Average Time Step           :    11.37 sec
  Maximum Time Step           :    20.00 sec
  % of Time in Steady State   :     0.00
  Average Iterations per Step :     3.39
  % of Steps Not Converging   :     6.95
  Time Step Frequencies       :
     20.000 -  9.564 sec      :    91.22 %
      9.564 -  4.573 sec      :     6.44 %
      4.573 -  2.187 sec      :     1.93 %
      2.187 -  1.046 sec      :     0.41 %
      1.046 -  0.500 sec      :     0.00 %
  
  
  ***************************
  Subcatchment Runoff Summary
  ***************************
  
  ------------------------------------------------------------------------------------------------------------------------------
                            Total      Total      Total      Total     Imperv       Perv      Total       Total     Peak  Runoff
                           Precip      Runon       Evap      Infil     Runoff     Runoff     Runoff      Runoff   Runoff   Coeff
  Subcatchment                 in         in         in         in         in         in         in    10^6 gal      CFS
  ------------------------------------------------------------------------------------------------------------------------------
  SUB-1034                  30.20       0.00       0.00       2.85      12.88      12.96      25.85        0.48     7.57   0.856
  SUB-1036                  30.20       0.00       0.00       3.42       9.69      15.32      25.01        0.65    10.44   0.828
  SUB-1038                  30.20       0.00       0.00       1.98      14.08       6.83      20.92        1.45    12.74   0.693
  SUB-1040                  30.20       0.00       0.00       1.61      18.70       9.59      28.29        0.42    10.86   0.937
  SUB-1044                  30.20       0.00       0.00       0.76      20.91       3.68      24.59        0.33     3.49   0.814
  SUB-1046                  30.20       0.00       0.00       1.78      11.55       4.80      16.35        2.30    16.63   0.541
  SUB-1048                  30.20       0.00       0.00       0.17      27.06       1.66      28.72        0.40     7.22   0.951
  SUB-1050                  30.20       0.00       0.00       0.96      22.11       6.61      28.72        0.74    18.27   0.951
  SUB-1052                  30.20       0.00       0.00       1.93      15.27       7.39      22.66        0.38     3.64   0.750
  SUB-1054                  30.20       0.00       0.00       2.95      11.79      11.41      23.20        1.67    19.05   0.768
  SUB-1056                  30.20       0.00       0.00       2.39      15.62      11.59      27.20        3.32    65.16   0.901
  SUB-1058                  30.20       0.00       0.00       0.80      22.22       4.03      26.26        0.57     6.92   0.870
  SUB-1060                  30.20       0.00       0.00       0.80      22.65       6.47      29.11        0.17     5.51   0.964
  SUB-1062                  30.20       0.00       0.00       2.39      15.25      10.93      26.18        0.62     9.00   0.867
  SUB-1086                  30.20       0.00       0.00       0.14      22.64       1.07      23.71        1.75    16.31   0.785
  SUB-1116                  30.20       0.00       0.00       0.45      25.23       4.10      29.34        1.73    51.46   0.971
  SUB-1134                  30.20       0.00       0.00       0.78      22.48       6.80      29.27        0.70    26.16   0.969
  SUB-1136                  30.20       0.00       0.00       0.73      23.48       5.33      28.80        1.17    27.23   0.954
  SUB-1138                  30.20       0.00       0.00       0.81      20.43       3.88      24.31        1.38    14.15   0.805
  SUB-1142                  30.20       0.00       0.00       0.02      28.82       0.28      29.11        0.47     8.96   0.964
  SUB-1144                  30.20       0.00       0.00       0.20      13.00       0.98      13.98        0.49     3.29   0.463
  SUB-1146                  30.20       0.00       0.00       0.51      20.25       2.49      22.73        1.34    12.22   0.753
  SUB-1150                  30.20       0.00       0.00       0.72      22.57       3.81      26.38        3.42    41.89   0.874
  SUB-1152                  30.20       0.00       0.00       1.32      20.80       6.49      27.30        1.05    15.43   0.904
  SUB-1154                  30.20       0.00       0.00       1.73      18.43       8.10      26.53        4.58    61.77   0.879
  SUB-1156                  30.20       0.00       0.00       1.58       7.93       2.98      10.91        0.97     5.88   0.361
  SUB-1158                  30.20       0.00       0.00       0.34      25.88       2.99      28.87        0.28     5.90   0.956
  SUB-1162                  30.20       0.00       0.00       0.32      23.52       2.10      25.62        2.11    23.21   0.848
  SUB-1164                  30.20       0.00       0.00       0.78      22.47       4.06      26.53        1.57    19.57   0.879
  SUB-1166                  30.20       0.00       0.00       0.78      22.70       6.50      29.20        1.17    39.70   0.967
  SUB-1168                  30.20       0.00       0.00       1.12      20.00       5.24      25.24        2.91    32.59   0.836
  SUB-1170                  30.20       0.00       0.00       1.93      17.66       9.12      26.78        2.71    39.89   0.887
  SUB-1172                  30.20       0.00       0.00       2.02      14.47      13.72      28.19        0.84    31.22   0.934
  SUB-1174                  30.20       0.00       0.00       2.85      12.62      12.08      24.70        4.48    57.08   0.818
  SUB-1178                  30.20       0.00       0.00       0.54      24.60       4.30      28.91        1.17    26.92   0.957
  SUB-1182                  30.20       0.00       0.00       2.85      12.40      11.41      23.81        1.26    14.89   0.789
  SUB-1188                  30.20       0.00       0.00       2.80       9.88      17.57      27.45        0.22     7.50   0.909
  SUB-1204                  30.20       0.00       0.00       1.98      16.26       8.39      24.66        1.90    21.50   0.817
  SUB-1226                  30.20       0.00       0.00       1.88      17.63       8.69      26.32        1.69    22.64   0.872
  SUB-1228                  30.20       0.00       0.00       0.71      22.70       3.82      26.52        1.52    18.83   0.878
  SUB-1230                  30.20       0.00       0.00       1.66      19.08       8.92      28.00        0.40     8.49   0.927
  SUB-1232                  30.20       0.00       0.00       0.48      26.22       1.34      27.56        1.06    14.99   0.913
  SUB-1234                  30.20       0.00       0.00       2.35      22.15       5.22      27.37        2.41    63.47   0.906
  SUB-1236                  30.20       0.00       0.00       1.93      18.13       9.52      27.65        1.22    23.66   0.916
  SUB-1238                  30.20       0.00       0.00       2.95      11.92      11.83      23.75        2.39    28.51   0.787
  SUB-1240                  30.20       0.00       0.00       2.39      14.64       9.98      24.62        1.04    12.40   0.815
  SUB-1250                  30.20       0.00       0.00       0.81      16.79       3.52      20.31        2.39    19.79   0.673
  SUB-1252                  30.20       0.00       0.00       1.22      20.05       5.75      25.81        6.48    77.08   0.855
  SUB-1254                  30.20       0.00       0.00       2.39      14.59       9.92      24.51        1.68    19.83   0.812
  SUB-1256                  30.20       0.00       0.00       0.32      25.01       0.89      25.89        1.81    20.08   0.857
  SUB-1258                  30.20       0.00       0.00       0.76      20.94       3.69      24.63        1.91    20.00   0.816
  SUB-1260                  30.20       0.00       0.00       1.27      20.17       6.05      26.21        1.12    14.03   0.868
  SUB-1262                  30.20       0.00       0.00       1.02      14.36       3.84      18.20        1.10     8.39   0.603
  SUB-1264                  30.20       0.00       0.00       1.84      22.51       3.00      25.52        1.90    24.00   0.845
  SUB-1266                  30.20       0.00       0.00       0.09      12.40       0.21      12.62        0.37     2.30   0.418
  SUB-1268                  30.20       0.00       0.00       0.13      24.47       1.08      25.55        2.04    21.68   0.846
  SUB-1274                  30.20       0.00       0.00       1.51      15.85       1.51      17.36        0.60     4.64   0.575
  SUB-1276                  30.20       0.00       0.00       0.58      24.19       3.96      28.15        0.39     6.55   0.932
  SUB-1278                  30.20       0.00       0.00       4.26      17.87       3.60      21.47        4.14    42.78   0.711
  SUB-1282                  30.20       0.00       0.00       1.73      18.18       7.97      26.15        2.00    25.81   0.866
  SUB-1284                  30.20       0.00       0.00       1.58      18.74       7.28      26.02        1.69    21.14   0.862
  SUB-1286                  30.20       0.00       0.00       0.36      25.63       2.97      28.61        0.72    13.54   0.947
  SUB-1288                  30.20       0.00       0.00       0.25      26.01       2.17      28.18        0.39     6.19   0.933
  SUB-1290                  30.20       0.00       0.00       0.81      21.80       4.00      25.79        8.25    95.79   0.854
  SUB-1292                  30.20       0.00       0.00       1.22      20.88       5.94      26.82        0.26     3.48   0.888
  SUB-1298                  30.20       0.00       0.00       1.12      18.81       5.03      23.84        4.75    47.36   0.789
  SUB-1300                  30.20       0.00       0.00       1.93      17.43       8.94      26.37        1.22    16.47   0.873
  SUB-1302                  30.20       0.00       0.00       8.09      13.86       7.62      21.48        1.24    20.24   0.711
  SUB-1304                  30.20       0.00       0.00      11.04      11.92       5.88      17.79        0.95    11.46   0.589
  SUB-1306                  30.20       0.00       0.00       0.81      21.13       3.94      25.07        0.59     6.45   0.830
  SUB-1308                  30.20       0.00       0.00       2.85      12.80      12.66      25.45        2.14    30.79   0.843
  SUB-1310                  30.20       0.00       0.00       3.04       9.86      17.33      27.19        0.40    12.46   0.900
  SUB-1312                  30.20       0.00       0.00       1.61      18.20      10.19      28.39        2.57    74.90   0.940
  SUB-1314                  30.20       0.00       0.00       1.32      18.91       9.88      28.79        1.14    41.44   0.953
  SUB-1320                  30.20       0.00       0.00       0.76      18.05       3.45      21.50        1.81    15.70   0.712
  SUB-1330                  30.20       0.00       0.00       1.62      19.13       8.96      28.09        1.80    39.49   0.930
  SUB-1332                  30.20       0.00       0.00       0.23      23.01       1.58      24.59        5.02    50.37   0.814
  SUB-1334                  30.20       0.00       0.00       0.86      22.34       6.72      29.05        0.24     7.61   0.962
  SUB-1340                  30.20       0.00       0.00       8.27       8.17       1.80       9.97        4.45    30.18   0.330
  SUB-1342                  30.20       0.00       0.00       2.95      12.41      13.72      26.13        1.08    18.85   0.865
  SUB-1344                  30.20       0.00       0.00       2.39      14.14       9.30      23.44        3.44    36.90   0.776
  SUB-1346                  30.20       0.00       0.00       0.81       8.96       2.39      11.35        0.56     3.51   0.376
  SUB-1348                  30.20       0.00       0.00       1.22      18.42       5.40      23.82        1.94    19.37   0.789
  SUB-1350                  30.20       0.00       0.00       2.39      14.25       9.44      23.68        3.90    42.64   0.784
  SUB-1352                  30.20       0.00       0.00       0.15      21.44       1.06      22.50        7.80    67.65   0.745
  SUB-1354                  30.20       0.00       0.00       0.57      24.31       3.97      28.29        3.20    56.21   0.937
  SUB-1356                  30.20       0.00       0.00       0.76      18.14       3.46      21.60        3.05    26.57   0.715
  SUB-1358                  30.20       0.00       0.00       0.87      22.79       5.18      27.97        2.67    44.45   0.926
  SUB-1360                  30.20       0.00       0.00       0.51      20.91       2.51      23.42        3.64    34.64   0.776
  SUB-1362                  30.20       0.00       0.00       0.02      24.86       0.28      25.14        2.03    20.63   0.832
  SUB-1364                  30.20       0.00       0.00       0.20      13.52       0.99      14.51        2.53    17.07   0.481
  SUB-1366                  30.20       0.00       0.00       0.27      26.70       2.77      29.47        2.19    63.78   0.976
  SUB-1368                  30.20       0.00       0.00       0.45      25.19       4.09      29.28        0.36    10.22   0.970
  SUB-1370                  30.20       0.00       0.00       0.30      26.28       2.74      29.01        4.24    93.49   0.961
  SUB-1372                  30.20       0.00       0.00       1.73      19.07       8.48      27.55        5.48    94.73   0.912
  SUB-1374                  30.20       0.00       0.00       1.58       3.83       1.42       5.25       17.18    90.42   0.174
  
  
  ******************
  Node Depth Summary
  ******************
  
  ---------------------------------------------------------------------------------
                                 Average  Maximum  Maximum  Time of Max    Reported
                                   Depth    Depth      HGL   Occurrence   Max Depth
  Node                 Type         Feet     Feet     Feet  days hr:min        Feet
  ---------------------------------------------------------------------------------
  JCT-10               JUNCTION     1.78     4.50  5303.39     0  01:28        4.50
  JCT-102              JUNCTION     1.58     7.24  5197.98     0  01:35        7.23
  JCT-104              JUNCTION     2.31     6.20  5185.36     0  01:36        6.18
  JCT-106              JUNCTION     0.00     0.00  5193.50     0  00:00        0.00
  JCT-110              JUNCTION     2.87     9.51  5191.42     0  01:27        9.23
  JCT-12               JUNCTION     0.00     0.00  5300.63     0  00:00        0.00
  JCT-122              JUNCTION     2.77     6.50  5207.90     0  01:37        6.50
  JCT-124              JUNCTION     1.95     4.50  5196.71     0  01:25        4.50
  JCT-132              JUNCTION     1.34     4.00  5278.15     0  01:28        4.00
  JCT-134              JUNCTION     1.31     4.50  5254.56     0  01:30        4.43
  JCT-136              JUNCTION     1.43     2.44  5219.25     0  01:50        2.44
  JCT-14               JUNCTION     0.91     2.50  5290.28     0  01:35        2.48
  JCT-146              JUNCTION     1.27     4.50  5198.44     0  01:27        4.50
  JCT-148              JUNCTION     0.60     1.70  5200.06     0  01:35        1.69
  JCT-166              JUNCTION     2.24     3.00  5188.93     0  01:34        3.00
  JCT-170              JUNCTION     1.31     4.50  5297.32     0  01:27        4.50
  JCT-172              JUNCTION     1.19     4.46  5293.93     0  01:28        4.36
  JCT-174              JUNCTION     0.00     0.00  5271.02     0  00:00        0.00
  JCT-176              JUNCTION     0.36     1.21  5253.90     0  01:37        1.21
  JCT-178              JUNCTION     0.67     1.19  5245.11     0  02:21        1.19
  JCT-18               JUNCTION     0.38     0.65  5270.11     0  02:25        0.65
  JCT-180              JUNCTION     1.00     3.10  5255.71     0  02:19        3.10
  JCT-182              JUNCTION     0.35     0.61  5231.79     0  02:25        0.61
  JCT-184              JUNCTION     0.39     0.70  5207.47     0  02:26        0.70
  JCT-186              JUNCTION     0.93     1.55  5191.65     0  02:25        1.55
  JCT-188              JUNCTION     0.92     1.49  5192.47     0  01:35        1.49
  JCT-190              JUNCTION     0.35     0.46  5211.98     0  03:05        0.46
  JCT-192              JUNCTION     2.06     4.50  5192.70     0  01:25        4.50
  JCT-194              JUNCTION     0.96     1.56  5189.95     0  01:36        1.55
  JCT-196              JUNCTION     3.61     8.50  5209.79     0  01:32        8.50
  JCT-198              JUNCTION     2.12     6.93  5187.41     0  01:27        6.62
  JCT-20               JUNCTION     0.81     1.41  5246.05     0  02:55        1.41
  JCT-200              JUNCTION     1.01     1.97  5177.56     0  01:34        1.90
  JCT-202              JUNCTION     4.00     4.32  5172.95     0  02:57        4.32
  JCT-204              JUNCTION     1.51     2.39  5233.25     0  01:49        2.39
  JCT-210              JUNCTION     1.69     4.50  5193.15     0  01:28        4.50
  JCT-212              JUNCTION     1.28     2.19  5201.12     0  01:43        2.19
  JCT-216              JUNCTION     6.62     7.50  5193.53     0  01:30        7.50
  JCT-218              JUNCTION     2.42     4.50  5202.32     0  01:29        4.50
  JCT-22               JUNCTION     2.66     4.50  5291.36     0  01:23        4.50
  JCT-220              JUNCTION     2.76     3.00  5193.68     0  01:25        3.00
  JCT-222              JUNCTION     0.91     2.44  5192.29     0  01:38        1.21
  JCT-228              JUNCTION     0.54     1.23  5186.50     0  01:45        1.23
  JCT-230              JUNCTION     1.19     4.14  5193.95     0  01:38        4.00
  JCT-232              JUNCTION     2.75     3.00  5195.61     0  01:25        3.00
  JCT-238              JUNCTION     1.39     4.50  5204.00     0  01:26        4.50
  JCT-24               JUNCTION     1.68     4.50  5281.98     0  01:27        4.50
  JCT-240              JUNCTION     2.76     3.00  5193.57     0  01:25        3.00
  JCT-244              JUNCTION     1.70     4.50  5190.92     0  01:26        4.50
  JCT-246              JUNCTION     1.80     3.50  5188.85     0  01:29        3.50
  JCT-248              JUNCTION     0.57     0.85  5184.49     0  01:34        0.85
  JCT-250              JUNCTION     2.32     3.50  5196.57     0  01:25        2.54
  JCT-256              JUNCTION     1.51     5.47  5296.81     0  01:29        5.43
  JCT-258              JUNCTION     1.03     3.50  5274.61     0  01:30        3.50
  JCT-26               JUNCTION     1.13     4.50  5286.06     0  01:27        4.50
  JCT-260              JUNCTION     1.69     4.50  5278.07     0  01:29        4.50
  JCT-262              JUNCTION     1.65     4.50  5274.98     0  01:30        4.43
  JCT-266              JUNCTION     0.94     1.86  5266.67     0  01:56        1.86
  JCT-270              JUNCTION     1.86     4.38  5256.10     0  01:26        3.48
  JCT-272              JUNCTION     0.42     0.76  5240.89     0  02:25        0.76
  JCT-274              JUNCTION     0.43     0.78  5227.00     0  02:20        0.77
  JCT-276              JUNCTION     1.15     2.20  5239.28     0  02:20        2.20
  JCT-278              JUNCTION     2.62     4.50  5245.30     0  01:25        4.50
  JCT-284              JUNCTION     1.48     4.50  5254.35     0  01:30        4.50
  JCT-286              JUNCTION     0.31     0.69  5250.06     0  01:45        0.69
  JCT-288              JUNCTION     0.19     0.40  5251.35     0  02:19        0.40
  JCT-290              JUNCTION     0.39     0.86  5241.53     0  02:19        0.86
  JCT-294              JUNCTION     0.24     1.20  5232.32     0  01:35        1.19
  JCT-296              JUNCTION     1.15     4.50  5213.49     0  02:19        4.50
  JCT-298              JUNCTION     2.02     4.50  5215.31     0  01:34        4.50
  JCT-30               JUNCTION     1.82     4.50  5275.68     0  01:25        4.50
  JCT-300              JUNCTION     1.58     3.32  5215.37     0  01:38        3.32
  JCT-302              JUNCTION     2.35     4.82  5219.91     0  01:51        4.73
  JCT-304              JUNCTION     2.49     4.50  5206.07     0  01:31        4.50
  JCT-306              JUNCTION     0.00     0.00  5248.58     0  00:00        0.00
  JCT-308              JUNCTION     0.60     1.15  5237.23     0  01:43        1.14
  JCT-310              JUNCTION     1.10     2.00  5191.08     0  01:28        1.89
  JCT-312              JUNCTION     0.61     1.43  5230.87     0  01:45        1.43
  JCT-314              JUNCTION     0.32     0.95  5246.40     0  01:37        0.95
  JCT-316              JUNCTION     2.00     4.32  5240.97     0  02:21        4.31
  JCT-318              JUNCTION     0.65     1.14  5252.08     0  02:25        1.14
  JCT-32               JUNCTION     3.17     5.50  5258.07     0  01:26        5.50
  JCT-320              JUNCTION     0.74     1.32  5253.28     0  02:25        1.32
  JCT-322              JUNCTION     0.86     1.58  5249.49     0  02:20        1.58
  JCT-324              JUNCTION     0.19     0.57  5257.38     0  01:35        0.57
  JCT-326              JUNCTION     0.52     0.82  5231.76     0  01:31        0.81
  JCT-328              JUNCTION     0.87     1.71  5246.13     0  02:20        1.71
  JCT-330              JUNCTION     2.35     4.50  5236.31     0  01:29        4.50
  JCT-334              JUNCTION     1.38     3.07  5201.56     0  01:32        2.80
  JCT-336              JUNCTION     2.15     4.50  5200.33     0  01:27        4.50
  JCT-338              JUNCTION     0.55     0.80  5218.80     0  03:04        0.80
  JCT-34               JUNCTION     0.51     1.06  5273.41     0  02:20        1.06
  JCT-340              JUNCTION     0.36     0.72  5210.04     0  02:20        0.72
  JCT-342              JUNCTION     1.87     3.14  5188.56     0  02:24        3.14
  JCT-344              JUNCTION     0.74     1.17  5207.53     0  02:26        1.17
  JCT-346              JUNCTION     1.20     2.02  5190.98     0  01:36        2.01
  JCT-348              JUNCTION     0.71     1.22  5183.45     0  02:25        1.22
  JCT-350              JUNCTION     0.00     0.00  5190.01     0  00:00        0.00
  JCT-352              JUNCTION     0.91     2.21  5179.74     0  01:31        2.12
  JCT-354              JUNCTION     1.48     5.74  5194.56     0  01:41        5.72
  JCT-356              JUNCTION     1.41     5.87  5198.49     0  01:35        5.87
  JCT-358              JUNCTION     2.28     6.50  5193.52     0  01:27        6.50
[...]
  WEIR-11              WEIR       129.36     0  01:49                      1.00
  WEIR-13              WEIR       119.95     0  01:31                      1.00
  WEIR-15              WEIR        57.32     0  02:06                      1.00
  WEIR-17              WEIR        61.65     0  01:38                      1.00
  
  
  ***************************
  Flow Classification Summary
  ***************************
  
  -------------------------------------------------------------------------------------
                      Adjusted    ---------- Fraction of Time in Flow Class ---------- 
                       /Actual         Up    Down  Sub   Sup   Up    Down  Norm  Inlet 
  Conduit               Length    Dry  Dry   Dry   Crit  Crit  Crit  Crit  Ltd   Ctrl  
  -------------------------------------------------------------------------------------
  CDT-101                 2.17   0.11  0.00  0.00  0.78  0.11  0.00  0.00  0.33  0.00
  CDT-103                 2.48   0.11  0.00  0.00  0.30  0.60  0.00  0.00  0.57  0.00
  CDT-105                 1.64   0.11  0.03  0.00  0.86  0.00  0.00  0.00  0.00  0.00
  CDT-107                 1.27   0.11  0.00  0.00  0.00  0.89  0.00  0.00  0.89  0.00
  CDT-109                 1.66   0.11  0.00  0.00  0.00  0.00  0.00  0.89  0.00  0.00
  CDT-11                  1.00   0.11  0.00  0.00  0.18  0.71  0.00  0.00  0.26  0.00
  CDT-111                 4.06   0.11  0.89  0.00  0.00  0.00  0.00  0.00  0.00  0.00
  CDT-113                 2.13   0.11  0.00  0.00  0.46  0.43  0.00  0.00  0.89  0.00
  CDT-115                 2.32   0.11  0.00  0.00  0.00  0.89  0.00  0.00  0.89  0.00
  CDT-117                 1.00   0.11  0.00  0.00  0.61  0.28  0.00  0.00  0.89  0.00
  CDT-119                 6.72   0.11  0.89  0.00  0.00  0.00  0.00  0.00  0.00  0.00
  CDT-121                 1.71   0.11  0.00  0.00  0.00  0.00  0.00  0.89  0.00  0.00
  CDT-123                 7.78   0.11  0.00  0.00  0.00  0.89  0.00  0.00  0.60  0.00
  CDT-125                 6.16   0.11  0.00  0.00  0.00  0.89  0.00  0.00  0.00  0.00
  CDT-127                 3.83   0.11  0.00  0.00  0.00  0.89  0.00  0.00  0.00  0.00
  CDT-129                 4.25   0.11  0.00  0.00  0.00  0.89  0.00  0.00  0.89  0.00
  CDT-13                 16.41   0.11  0.00  0.00  0.19  0.70  0.00  0.00  0.57  0.00
  CDT-131                 8.79   0.11  0.00  0.00  0.00  0.89  0.00  0.00  0.89  0.00
  CDT-133                 3.08   0.11  0.00  0.00  0.02  0.87  0.00  0.00  0.02  0.00
  CDT-135                 4.73   0.11  0.00  0.00  0.04  0.85  0.00  0.00  0.89  0.00
  CDT-137                 1.15   0.11  0.00  0.00  0.00  0.00  0.00  0.89  0.00  0.00
  CDT-139                 9.03   0.11  0.00  0.00  0.00  0.89  0.00  0.00  0.33  0.00
  CDT-141                36.34   0.11  0.00  0.00  0.58  0.31  0.00  0.00  0.89  0.00
  CDT-143                 3.04   0.11  0.00  0.00  0.00  0.89  0.00  0.00  0.89  0.00
  CDT-145                 3.65   0.11  0.00  0.00  0.01  0.88  0.00  0.00  0.00  0.00
  CDT-147                 8.52   0.11  0.00  0.00  0.02  0.87  0.00  0.00  0.69  0.00
  CDT-149                 4.06   0.11  0.00  0.00  0.00  0.89  0.00  0.00  0.89  0.00
  CDT-15                  1.41   0.11  0.00  0.00  0.22  0.67  0.00  0.00  0.04  0.00
  CDT-151                14.93   0.11  0.00  0.00  0.00  0.00  0.00  0.89  0.00  0.00
  CDT-153                 9.32   0.11  0.00  0.00  0.00  0.89  0.00  0.00  0.89  0.00
  CDT-155                 1.73   0.11  0.00  0.00  0.00  0.89  0.00  0.00  0.89  0.00
  CDT-157                 1.21   0.11  0.00  0.00  0.00  0.89  0.00  0.00  0.00  0.00
  CDT-159                 1.00   0.11  0.00  0.00  0.59  0.30  0.00  0.00  0.85  0.00
  CDT-161                 1.93   0.11  0.00  0.00  0.00  0.89  0.00  0.00  0.34  0.00
  CDT-163                 3.11   0.11  0.00  0.00  0.00  0.89  0.00  0.00  0.89  0.00
  CDT-165                 4.87   0.11  0.00  0.00  0.89  0.00  0.00  0.00  0.75  0.00
  CDT-167                10.33   0.11  0.00  0.00  0.00  0.00  0.00  0.89  0.00  0.00
  CDT-169                 1.89   0.11  0.00  0.00  0.00  0.89  0.00  0.00  0.89  0.00
  CDT-17                  3.24   0.11  0.00  0.00  0.00  0.89  0.00  0.00  0.54  0.00
  CDT-171                 2.74   0.11  0.00  0.00  0.00  0.89  0.00  0.00  0.88  0.00
  CDT-173                 1.50   0.11  0.00  0.00  0.87  0.02  0.00  0.00  0.89  0.00
  CDT-175                 1.37   0.11  0.00  0.00  0.01  0.88  0.00  0.00  0.00  0.00
  CDT-177                 1.00   0.11  0.00  0.00  0.00  0.89  0.00  0.00  0.01  0.00
  CDT-179                 2.63   0.11  0.00  0.00  0.00  0.89  0.00  0.00  0.87  0.00
  CDT-181                 5.11   0.11  0.00  0.00  0.01  0.88  0.00  0.00  0.00  0.00
  CDT-183                 8.18   0.11  0.02  0.00  0.87  0.00  0.00  0.00  0.00  0.00
  CDT-185                 1.00   0.00  0.11  0.00  0.89  0.00  0.00  0.00  0.89  0.00
  CDT-187                 1.00   0.11  0.00  0.00  0.00  0.89  0.00  0.00  0.00  0.00
  CDT-189                 1.00   0.11  0.00  0.00  0.32  0.58  0.00  0.00  0.58  0.00
  CDT-19                  1.00   0.11  0.00  0.00  0.33  0.56  0.00  0.00  0.59  0.00
  CDT-191                 1.00   0.12  0.06  0.00  0.83  0.00  0.00  0.00  0.30  0.00
  CDT-193                 1.72   0.11  0.00  0.00  0.85  0.04  0.00  0.00  0.15  0.00
  CDT-195                 1.00   0.11  0.00  0.00  0.85  0.04  0.00  0.00  0.10  0.00
  CDT-197                 1.00   0.00  0.15  0.00  0.16  0.70  0.00  0.00  0.85  0.00
  CDT-199                 1.00   0.00  0.00  0.00  1.00  0.00  0.00  0.00  0.99  0.00
  CDT-201                 3.12   0.11  0.00  0.00  0.00  0.00  0.00  0.89  0.00  0.00
  CDT-203                 1.00   1.00  0.00  0.00  0.00  0.00  0.00  0.00  0.00  0.00
  CDT-205                 1.81   1.00  0.00  0.00  0.00  0.00  0.00  0.00  0.00  0.00
  CDT-207                11.41   0.11  0.00  0.00  0.00  0.89  0.00  0.00  0.84  0.00
  CDT-209                 2.39   0.11  0.00  0.00  0.42  0.47  0.00  0.00  0.61  0.00
  CDT-21                  1.00   0.11  0.00  0.00  0.16  0.73  0.00  0.00  0.03  0.00
  CDT-211                 1.00   0.11  0.00  0.00  0.33  0.56  0.00  0.00  0.00  0.00
  CDT-213                 1.23   0.11  0.00  0.00  0.01  0.88  0.00  0.00  0.00  0.00
  CDT-215                 2.94   0.11  0.00  0.00  0.20  0.69  0.00  0.00  0.68  0.00
  CDT-217                 1.63   0.11  0.01  0.00  0.00  0.00  0.88  0.00  0.00  0.00
  CDT-219                 1.00   0.11  0.00  0.00  0.73  0.16  0.00  0.00  0.69  0.00
  CDT-221                 1.00   0.11  0.00  0.00  0.88  0.01  0.00  0.00  0.66  0.00
  CDT-223                 1.00   0.11  0.00  0.00  0.00  0.00  0.00  0.89  0.00  0.00
  CDT-225                 1.00   0.11  0.05  0.00  0.84  0.00  0.00  0.00  0.05  0.00
  CDT-227                 1.00   0.11  0.00  0.00  0.89  0.00  0.00  0.00  0.09  0.00
  CDT-229                 1.29   0.11  0.00  0.00  0.89  0.00  0.00  0.00  0.02  0.00
  CDT-23                  1.00   0.11  0.89  0.00  0.00  0.00  0.00  0.00  0.00  0.00
  CDT-231                 1.36   0.11  0.02  0.00  0.87  0.00  0.00  0.00  0.00  0.00
  CDT-233                 5.34   0.11  0.00  0.00  0.59  0.30  0.00  0.00  0.67  0.00
  CDT-235                 1.00   0.11  0.00  0.00  0.78  0.11  0.00  0.00  0.40  0.00
  CDT-237                 1.00   0.11  0.02  0.00  0.87  0.00  0.00  0.00  0.02  0.00
  CDT-239                17.06   0.11  0.00  0.00  0.26  0.63  0.00  0.00  0.60  0.00
  CDT-247                 1.00   0.11  0.00  0.00  0.87  0.02  0.00  0.00  0.46  0.00
  CDT-249                 2.77   0.11  0.00  0.00  0.28  0.04  0.00  0.58  0.03  0.00
  CDT-25                  1.00   0.11  0.00  0.00  0.14  0.75  0.00  0.00  0.76  0.00
  CDT-251                 1.27   0.11  0.00  0.00  0.00  0.89  0.00  0.00  0.00  0.00
  CDT-255                 1.11   0.11  0.00  0.00  0.88  0.01  0.00  0.00  0.52  0.00
  CDT-259                 1.00   0.11  0.00  0.00  0.30  0.59  0.00  0.00  0.00  0.00
  CDT-261                 1.59   0.11  0.44  0.00  0.45  0.00  0.00  0.00  0.63  0.00
  CDT-263                 6.35   0.11  0.00  0.00  0.00  0.89  0.00  0.00  0.00  0.00
  CDT-265                 1.03   0.00  0.00  0.00  1.00  0.00  0.00  0.00  0.00  0.00
  CDT-267                 7.00   0.00  0.11  0.00  0.61  0.28  0.00  0.00  0.89  0.00
  CDT-269                 3.07   0.12  0.00  0.00  0.21  0.67  0.00  0.00  0.00  0.00
  CDT-27                  1.29   0.11  0.00  0.00  0.00  0.89  0.00  0.00  0.83  0.00
  CDT-271                 1.00   0.12  0.00  0.00  0.17  0.71  0.00  0.00  0.45  0.00
  CDT-273                 2.74   0.13  0.00  0.00  0.00  0.87  0.00  0.00  0.00  0.00
  CDT-275                 1.35   0.00  0.13  0.00  0.71  0.17  0.00  0.00  0.87  0.00
  CDT-277                 1.00   0.00  0.00  0.00  1.00  0.00  0.00  0.00  0.00  0.00
  CDT-279                 9.10   0.11  0.00  0.00  0.19  0.70  0.00  0.00  0.68  0.00
  CDT-281                36.20   0.11  0.00  0.00  0.85  0.04  0.00  0.00  0.65  0.00
  CDT-283                 1.00   0.13  0.00  0.00  0.85  0.02  0.00  0.00  0.00  0.00
  CDT-285                 1.31   0.11  0.00  0.00  0.46  0.43  0.00  0.00  0.89  0.00
  CDT-287                 5.00   0.00  0.00  0.00  1.00  0.00  0.00  0.00  0.00  0.00
  CDT-29                  1.00   0.11  0.00  0.00  0.29  0.60  0.00  0.00  0.63  0.00
  CDT-291                 1.00   0.00  0.00  0.00  1.00  0.00  0.00  0.00  0.00  0.00
  CDT-293                 1.19   0.00  0.11  0.00  0.85  0.04  0.00  0.00  0.89  0.00
  CDT-295                 1.00   0.00  0.00  0.00  1.00  0.00  0.00  0.00  0.00  0.00
  CDT-297                 6.59   0.00  0.11  0.00  0.57  0.32  0.00  0.00  0.89  0.00
  CDT-31                 14.03   0.11  0.00  0.00  0.23  0.66  0.00  0.00  0.65  0.00
  CDT-33                 19.35   0.11  0.00  0.00  0.00  0.89  0.00  0.00  0.89  0.00
  CDT-35                  9.53   0.11  0.04  0.00  0.85  0.00  0.00  0.00  0.18  0.00
  CDT-37                  2.34   0.11  0.00  0.00  0.18  0.71  0.00  0.00  0.02  0.00
  CDT-39                  2.09   0.11  0.00  0.00  0.19  0.70  0.00  0.00  0.71  0.00
  CDT-43                 18.98   0.11  0.00  0.00  0.00  0.89  0.00  0.00  0.00  0.00
  CDT-45                  1.07   0.11  0.00  0.00  0.26  0.63  0.00  0.00  0.63  0.00
  CDT-49                  8.89   0.11  0.00  0.00  0.31  0.58  0.00  0.00  0.00  0.00
  CDT-51                  1.01   0.11  0.00  0.00  0.57  0.32  0.00  0.00  0.89  0.00
  CDT-53                  2.02   0.11  0.00  0.00  0.00  0.89  0.00  0.00  0.89  0.00
  CDT-55                 26.96   0.11  0.00  0.00  0.00  0.89  0.00  0.00  0.87  0.00
  CDT-57                 20.94   0.11  0.00  0.00  0.00  0.89  0.00  0.00  0.22  0.00
  CDT-59                  1.79   0.11  0.00  0.00  0.02  0.87  0.00  0.00  0.89  0.00
  CDT-61                  7.82   0.11  0.00  0.00  0.89  0.00  0.00  0.00  0.35  0.00
  CDT-63                  1.00   0.11  0.00  0.00  0.82  0.07  0.00  0.00  0.61  0.00
  CDT-69                  1.02   0.11  0.00  0.00  0.32  0.58  0.00  0.00  0.58  0.00
  CDT-71                  1.48   0.11  0.00  0.00  0.40  0.49  0.00  0.00  0.49  0.00
  CDT-73                  4.35   0.11  0.00  0.00  0.00  0.89  0.00  0.00  0.01  0.00
  CDT-75                 11.52   0.11  0.00  0.00  0.00  0.89  0.00  0.00  0.89  0.00
  CDT-77                  1.00   0.11  0.00  0.00  0.74  0.15  0.00  0.00  0.89  0.00
  CDT-79                  1.24   0.11  0.00  0.00  0.00  0.89  0.00  0.00  0.21  0.00
  CDT-81                  1.13   0.11  0.00  0.00  0.62  0.27  0.00  0.00  0.89  0.00
  CDT-87                 13.84   0.11  0.00  0.00  0.00  0.89  0.00  0.00  0.87  0.00
  CDT-89                  2.18   0.11  0.00  0.00  0.02  0.88  0.00  0.00  0.04  0.00
  CDT-91                  5.24   0.11  0.00  0.00  0.67  0.22  0.00  0.00  0.88  0.00
  CDT-93                  1.80   0.11  0.00  0.00  0.00  0.89  0.00  0.00  0.03  0.00
  CDT-95                  7.97   0.11  0.00  0.00  0.44  0.45  0.00  0.00  0.89  0.00
  CDT-97                  1.97   0.11  0.00  0.00  0.88  0.01  0.00  0.00  0.03  0.00
  CDT-99                  1.59   0.11  0.00  0.00  0.33  0.57  0.00  0.00  0.64  0.00
  
  
  *************************
  Conduit Surcharge Summary
  *************************
  
  ----------------------------------------------------------------------------
                                                           Hours        Hours 
                         --------- Hours Full --------   Above Full   Capacity
  Conduit                Both Ends  Upstream  Dnstream   Normal Flow   Limited
  ----------------------------------------------------------------------------
  CDT-101                     4.32      4.32      8.61      0.01         0.01
  CDT-103                     2.94      2.94      4.43      0.01         0.01
  CDT-105                     8.58      8.58      8.58      0.01         0.01
  CDT-11                      1.81      1.81      1.85      1.55         1.50
  CDT-117                     0.01      0.01      4.41      0.01         0.01
  CDT-123                     0.01      2.02      0.01      1.51         0.01
  CDT-13                      1.85      1.85      1.86      0.61         0.62
  CDT-131                     0.01      0.01      1.43      0.01         0.01
  CDT-133                     0.01      1.43      0.01      1.01         0.01
  CDT-135                     0.01      0.01      2.41      0.01         0.01
  CDT-137                     0.01      1.89      0.01      2.36         0.01
  CDT-143                     0.01      0.01      2.62      0.01         0.01
  CDT-145                     0.01      2.62      0.01      0.01         0.01
  CDT-147                     0.01      1.57      0.01      1.37         0.01
  CDT-15                      1.72      1.91      1.73      1.95         1.72
  CDT-153                     0.01      0.01      2.31      0.01         0.01
  CDT-155                     0.01      0.01      2.20      0.01         0.01
  CDT-157                     0.01      2.20      0.01      1.97         0.01
  CDT-159                     0.01      0.01      6.99      0.01         0.01
  CDT-17                      0.01      1.32      0.01      0.76         0.01
  CDT-171                     0.01      0.01      1.42      0.01         0.01
  CDT-173                     0.01      0.01      2.58      0.01         0.01
  CDT-177                     0.01      3.21      0.01      3.04         0.01
  CDT-183                     3.02      3.03      3.30      0.01         0.01
  CDT-185                     0.01      0.01      8.86      0.01         0.01
  CDT-187                     0.01      3.08      0.01      2.79         0.01
  CDT-189                     2.94      2.94      3.08      0.01         0.01
  CDT-19                      2.83      2.83      4.78      0.01         0.01
  CDT-191                     4.41      4.41      8.26      0.01         0.01
  CDT-193                     6.13      6.13      8.47      0.01         0.01
  CDT-195                     6.66      6.66      8.47      0.01         0.01
  CDT-197                     0.01      0.01      8.54      0.01         0.01
  CDT-209                     2.59      2.59      2.83      2.38         2.36
  CDT-21                      1.14      4.78      1.14      3.94         0.55
  CDT-211                     2.59      2.88      2.59      3.10         2.59
  CDT-213                     0.01      2.09      0.01      1.97         0.01
  CDT-215                     1.96      1.96      1.96      0.64         0.61
  CDT-219                     1.92      1.92      1.96      0.10         0.11
  CDT-221                     1.90      1.96      1.90      2.01         1.90
  CDT-223                     0.01      1.79      0.01      1.89         0.01
  CDT-225                     0.01      0.01      8.42      0.01         0.01
  CDT-227                     1.55      1.55      8.61      0.01         0.01
  CDT-229                     8.60      8.60      8.67      2.08         0.01
  CDT-231                     8.61      8.61      8.67      2.21         0.01
  CDT-233                     2.14      2.14      8.70      0.01         0.01
  CDT-235                     3.92      3.92      8.67      0.01         0.01
  CDT-237                     8.49      8.49      8.52      0.07         0.07
  CDT-239                     2.55      2.55      2.67      0.01         0.01
  CDT-247                     2.88      3.00      2.88      3.26         2.88
  CDT-249                     2.67      2.67      2.89      0.01         0.01
  CDT-25                      1.06      1.06      2.55      0.01         0.01
  CDT-251                     0.01      2.29      0.01      0.01         0.01
  CDT-255                     3.21      3.27      3.21      3.37         3.21
  CDT-259                     0.01      2.64      0.01      3.31         0.01
  CDT-261                     0.01      0.01      2.86      0.01         0.01
  CDT-263                     0.01      2.86      0.01      2.40         0.01
  CDT-267                     0.01      0.01      8.91      0.01         0.01
  CDT-273                     0.01      8.43      0.01      8.09         0.01
  CDT-275                     0.01      0.01      8.72      0.01         0.01
  CDT-279                     1.77      1.77      1.91      0.01         0.01
  CDT-281                     1.79      1.79      2.38      0.01         0.01
  CDT-283                     8.51      8.55      8.51      7.00         6.96
  CDT-285                     0.01      0.01      3.52      0.01         0.01
  CDT-29                      2.54      2.54      2.61      0.25         0.23
  CDT-293                     0.01      0.01      8.86      0.01         0.01
  CDT-297                     0.01      0.01      8.90      0.01         0.01
  CDT-31                      2.10      2.10      2.37      0.01         0.01
  CDT-33                      0.01      0.01      1.79      0.01         0.01
  CDT-35                      2.02      2.02      2.89      0.01         0.01
  CDT-37                      1.71      1.73      1.77      1.52         1.47
  CDT-39                      1.78      1.78      2.26      0.01         0.01
  CDT-43                      0.01      1.96      0.01      0.01         0.01
  CDT-45                      2.55      2.55      5.41      0.01         0.01
  CDT-49                      3.10      5.41      3.10      4.65         3.10
  CDT-51                      0.01      0.01      6.37      0.01         0.01
  CDT-53                      0.01      0.01      1.91      0.01         0.01
  CDT-55                      0.01      0.01      2.59      0.01         0.01
  CDT-57                      0.01      1.91      0.01      0.01         0.01
  CDT-61                      2.28      2.28      2.32      0.01         0.01
  CDT-63                      2.32      2.32      5.00      0.01         0.01
  CDT-69                      3.05      3.05      3.96      0.01         0.01
  CDT-71                      3.96      3.96      4.44      3.89         3.85
  CDT-73                      0.01      4.00      0.01      1.92         0.01
  CDT-77                      0.01      0.01      4.70      0.01         0.01
  CDT-81                      0.01      0.01      4.17      0.01         0.01
  CDT-87                      0.01      0.01      1.60      0.01         0.01
  CDT-89                      0.01      1.32      0.01      0.73         0.01
  CDT-91                      0.01      0.01      4.42      0.01         0.01
  CDT-95                      0.01      0.01      8.58      0.01         0.01
  CDT-97                      8.58      8.58      8.64      6.87         0.01
  CDT-99                      1.71      1.71      4.67      0.01         0.01
  

  Analysis begun on:  Fri Mar  6 14:35:21 2026
  Analysis ended on:  Fri Mar  6 14:35:21 2026
  Total elapsed time: < 1 sec