
  EPA STORM WATER MANAGEMENT MODEL - VERSION 5.2 (Build 5.2.4)
  ------------------------------------------------------------

  WARNING 04: minimum elevation drop used for Conduit APM1.1
  WARNING 04: minimum elevation drop used for Conduit ASD2.1
  WARNING 04: minimum elevation drop used for Conduit BCH24.2
  WARNING 04: minimum elevation drop used for Conduit BKE3.2
  WARNING 04: minimum elevation drop used for Conduit BRR6A-2.1
  WARNING 04: minimum elevation drop used for Conduit BRT1.1
  WARNING 04: minimum elevation drop used for Conduit BRT6.1
  WARNING 04: minimum elevation drop used for Conduit CHE11.1
  WARNING 04: minimum elevation drop used for Conduit CLY6.1
  WARNING 04: minimum elevation drop used for Conduit CMA10.1
  WARNING 04: minimum elevation drop used for Conduit CMA2.1
  WARNING 04: minimum elevation drop used for Conduit CTT1A.1
  WARNING 04: minimum elevation drop used for Conduit CWD1.1
  WARNING 04: minimum elevation drop used for Conduit DCR1.2
  WARNING 04: minimum elevation drop used for Conduit ELS59.2
  WARNING 04: minimum elevation drop used for Conduit EPS2D.1
  WARNING 04: minimum elevation drop used for Conduit ERS0086.2
  WARNING 04: minimum elevation drop used for Conduit ERS10.3
  WARNING 04: minimum elevation drop used for Conduit ERS102.1
  WARNING 04: minimum elevation drop used for Conduit ERS103.1
  WARNING 04: minimum elevation drop used for Conduit ERS106.1
  WARNING 04: minimum elevation drop used for Conduit ERS107.1
  WARNING 04: minimum elevation drop used for Conduit ERS110.1
  WARNING 04: minimum elevation drop used for Conduit ERS114.1
  WARNING 04: minimum elevation drop used for Conduit ERS117.1
  WARNING 04: minimum elevation drop used for Conduit ERS118.1
  WARNING 04: minimum elevation drop used for Conduit ERS119.1
  WARNING 04: minimum elevation drop used for Conduit ERS121.1
  WARNING 04: minimum elevation drop used for Conduit ERS122.1
  WARNING 04: minimum elevation drop used for Conduit ERS126.1
  WARNING 04: minimum elevation drop used for Conduit ERS127.1
  WARNING 04: minimum elevation drop used for Conduit ERS129.1
  WARNING 04: minimum elevation drop used for Conduit ERS13.1
  WARNING 04: minimum elevation drop used for Conduit ERS130.1
  WARNING 04: minimum elevation drop used for Conduit ERS131.2
  WARNING 04: minimum elevation drop used for Conduit ERS134.1
  WARNING 04: minimum elevation drop used for Conduit ERS136.1
  WARNING 04: minimum elevation drop used for Conduit ERS137.1
  WARNING 04: minimum elevation drop used for Conduit ERS138.1
  WARNING 04: minimum elevation drop used for Conduit ERS140.1
  WARNING 04: minimum elevation drop used for Conduit ERS142.1
  WARNING 04: minimum elevation drop used for Conduit ERS143.1
  WARNING 04: minimum elevation drop used for Conduit ERS144.1
  WARNING 04: minimum elevation drop used for Conduit ERS145.1
  WARNING 04: minimum elevation drop used for Conduit ERS146.1
  WARNING 04: minimum elevation drop used for Conduit ERS150.2
  WARNING 04: minimum elevation drop used for Conduit ERS152.1
  WARNING 04: minimum elevation drop used for Conduit ERS155.1
  WARNING 04: minimum elevation drop used for Conduit ERS156.1
  WARNING 04: minimum elevation drop used for Conduit ERS15B.1
  WARNING 04: minimum elevation drop used for Conduit ERS16.3
  WARNING 04: minimum elevation drop used for Conduit ERS161.1
  WARNING 04: minimum elevation drop used for Conduit ERS162.1
  WARNING 04: minimum elevation drop used for Conduit ERS167.1
  WARNING 04: minimum elevation drop used for Conduit ERS169.1
  WARNING 04: minimum elevation drop used for Conduit ERS17.1
  WARNING 04: minimum elevation drop used for Conduit ERS170.1
  WARNING 04: minimum elevation drop used for Conduit ERS171.1
  WARNING 04: minimum elevation drop used for Conduit ERS172.1
  WARNING 04: minimum elevation drop used for Conduit ERS175.1
  WARNING 04: minimum elevation drop used for Conduit ERS178.1
  WARNING 04: minimum elevation drop used for Conduit ERS179.1
  WARNING 04: minimum elevation drop used for Conduit ERS18.1
  WARNING 04: minimum elevation drop used for Conduit ERS185.1
  WARNING 04: minimum elevation drop used for Conduit ERS189.2
  WARNING 04: minimum elevation drop used for Conduit ERS19.1
  WARNING 04: minimum elevation drop used for Conduit ERS191.1
  WARNING 04: minimum elevation drop used for Conduit ERS197.1
  WARNING 04: minimum elevation drop used for Conduit ERS205.1
  WARNING 04: minimum elevation drop used for Conduit ERS207.1
  WARNING 04: minimum elevation drop used for Conduit ERS209.1
  WARNING 04: minimum elevation drop used for Conduit ERS21.1
  WARNING 04: minimum elevation drop used for Conduit ERS211.1
  WARNING 04: minimum elevation drop used for Conduit ERS214.1
  WARNING 04: minimum elevation drop used for Conduit ERS215.1
  WARNING 04: minimum elevation drop used for Conduit ERS216.1
  WARNING 04: minimum elevation drop used for Conduit ERS217.2
  WARNING 04: minimum elevation drop used for Conduit ERS225.1
  WARNING 04: minimum elevation drop used for Conduit ERS226.1
  WARNING 04: minimum elevation drop used for Conduit ERS229.1
  WARNING 04: minimum elevation drop used for Conduit ERS23.1
  WARNING 04: minimum elevation drop used for Conduit ERS239.1
  WARNING 04: minimum elevation drop used for Conduit ERS243.1
  WARNING 04: minimum elevation drop used for Conduit ERS244.1
  WARNING 04: minimum elevation drop used for Conduit ERS260.1
  WARNING 04: minimum elevation drop used for Conduit ERS261.1
  WARNING 04: minimum elevation drop used for Conduit ERS267.1
  WARNING 04: minimum elevation drop used for Conduit ERS269.1
  WARNING 04: minimum elevation drop used for Conduit ERS290.1
  WARNING 04: minimum elevation drop used for Conduit ERS3.1
  WARNING 04: minimum elevation drop used for Conduit ERS315.1
  WARNING 04: minimum elevation drop used for Conduit ERS323.1
  WARNING 04: minimum elevation drop used for Conduit ERS327.1
  WARNING 04: minimum elevation drop used for Conduit ERS328.1
  WARNING 04: minimum elevation drop used for Conduit ERS329.1
  WARNING 04: minimum elevation drop used for Conduit ERS33.2
  WARNING 04: minimum elevation drop used for Conduit ERS332.1
  WARNING 04: minimum elevation drop used for Conduit ERS334.1
  WARNING 04: minimum elevation drop used for Conduit ERS335.1
  WARNING 04: minimum elevation drop used for Conduit ERS34.1
  WARNING 04: minimum elevation drop used for Conduit ERS344.1
  WARNING 04: minimum elevation drop used for Conduit ERS353.1
  WARNING 04: minimum elevation drop used for Conduit ERS354.1
  WARNING 04: minimum elevation drop used for Conduit ERS355.1
  WARNING 04: minimum elevation drop used for Conduit ERS366.1
  WARNING 04: minimum elevation drop used for Conduit ERS371.1
  WARNING 04: minimum elevation drop used for Conduit ERS374.1
  WARNING 04: minimum elevation drop used for Conduit ERS375.1
  WARNING 04: minimum elevation drop used for Conduit ERS382.1
  WARNING 04: minimum elevation drop used for Conduit ERS390P.1
  WARNING 04: minimum elevation drop used for Conduit ERS406.1
  WARNING 04: minimum elevation drop used for Conduit ERS407.1
  WARNING 04: minimum elevation drop used for Conduit ERS408.2
  WARNING 04: minimum elevation drop used for Conduit ERS417.2
  WARNING 04: minimum elevation drop used for Conduit ERS418.1
  WARNING 04: minimum elevation drop used for Conduit ERS419.1
  WARNING 04: minimum elevation drop used for Conduit ERS42.2
  WARNING 04: minimum elevation drop used for Conduit ERS426.1
  WARNING 04: minimum elevation drop used for Conduit ERS429.1
  WARNING 04: minimum elevation drop used for Conduit ERS43.1
  WARNING 04: minimum elevation drop used for Conduit ERS434.1
  WARNING 04: minimum elevation drop used for Conduit ERS45.1
  WARNING 04: minimum elevation drop used for Conduit ERS451.1
  WARNING 04: minimum elevation drop used for Conduit ERS463.1
  WARNING 04: minimum elevation drop used for Conduit ERS465.1
  WARNING 04: minimum elevation drop used for Conduit ERS468.1
  WARNING 04: minimum elevation drop used for Conduit ERS479.1
  WARNING 04: minimum elevation drop used for Conduit ERS48.1
  WARNING 04: minimum elevation drop used for Conduit ERS480.1
  WARNING 04: minimum elevation drop used for Conduit ERS482.1
  WARNING 04: minimum elevation drop used for Conduit ERS486.1
  WARNING 04: minimum elevation drop used for Conduit ERS505.1
  WARNING 04: minimum elevation drop used for Conduit ERS56.1
  WARNING 04: minimum elevation drop used for Conduit ERS57.1
  WARNING 04: minimum elevation drop used for Conduit ERS58.1
  WARNING 04: minimum elevation drop used for Conduit ERS599.1
  WARNING 04: minimum elevation drop used for Conduit ERS601.1
  WARNING 04: minimum elevation drop used for Conduit ERS604.1
  WARNING 04: minimum elevation drop used for Conduit ERS62.1
  WARNING 04: minimum elevation drop used for Conduit ERS65.1
  WARNING 04: minimum elevation drop used for Conduit ERS66.1
  WARNING 04: minimum elevation drop used for Conduit ERS72.1
  WARNING 04: minimum elevation drop used for Conduit ERS73.2
  WARNING 04: minimum elevation drop used for Conduit ERS74.1
  WARNING 04: minimum elevation drop used for Conduit ERS83.1
  WARNING 04: minimum elevation drop used for Conduit ERS85.2
  WARNING 04: minimum elevation drop used for Conduit ERS87.1
  WARNING 04: minimum elevation drop used for Conduit ERS88.1
  WARNING 04: minimum elevation drop used for Conduit ERS9.1
  WARNING 04: minimum elevation drop used for Conduit ERS90.1
  WARNING 04: minimum elevation drop used for Conduit ERS94.1
  WARNING 08: elevation drop exceeds length for Conduit FIS3.2
  WARNING 04: minimum elevation drop used for Conduit FRN25.1
  WARNING 04: minimum elevation drop used for Conduit FRN39.1
  WARNING 08: elevation drop exceeds length for Conduit GCM63A.1
  WARNING 04: minimum elevation drop used for Conduit GCR72.1
  WARNING 04: minimum elevation drop used for Conduit HAN21.1
  WARNING 04: minimum elevation drop used for Conduit HBM29.1
  WARNING 04: minimum elevation drop used for Conduit HTM2.1
  WARNING 04: minimum elevation drop used for Conduit INEASTG.1
  WARNING 04: minimum elevation drop used for Conduit INWESTG.1
  WARNING 04: minimum elevation drop used for Conduit KOR37.1
  WARNING 04: minimum elevation drop used for Conduit LOC9.1
  WARNING 04: minimum elevation drop used for Conduit MCD1C.2
  WARNING 04: minimum elevation drop used for Conduit MCM118.1
  WARNING 04: minimum elevation drop used for Conduit MCM35.2
  WARNING 04: minimum elevation drop used for Conduit MCM79.1
  WARNING 08: elevation drop exceeds length for Conduit MIS7.2
  WARNING 04: minimum elevation drop used for Conduit MOL1J.1
  WARNING 04: minimum elevation drop used for Conduit MPR36.2
  WARNING 04: minimum elevation drop used for Conduit MRD16C.1
  WARNING 04: minimum elevation drop used for Conduit MRG1-Z.1
  WARNING 04: minimum elevation drop used for Conduit MRR70.1
  WARNING 04: minimum elevation drop used for Conduit MRT1A.1
  WARNING 04: minimum elevation drop used for Conduit MRT29A.1
  WARNING 08: elevation drop exceeds length for Conduit NCR44.2
  WARNING 04: minimum elevation drop used for Conduit NED7.2
  WARNING 04: minimum elevation drop used for Conduit NRI4A.2
  WARNING 04: minimum elevation drop used for Conduit NWHRFOUT.2
  WARNING 04: minimum elevation drop used for Conduit NYM1A.1
  WARNING 04: minimum elevation drop used for Conduit NYM34.1
  WARNING 04: minimum elevation drop used for Conduit NYM3AJ.1
  WARNING 04: minimum elevation drop used for Conduit OAI17D.1
  WARNING 04: minimum elevation drop used for Conduit PAN1.1
  WARNING 04: minimum elevation drop used for Conduit PED2.1
  WARNING 04: minimum elevation drop used for Conduit POI23.2
  WARNING 04: minimum elevation drop used for Conduit PRD40.2
  WARNING 04: minimum elevation drop used for Conduit PRS36.2
  WARNING 04: minimum elevation drop used for Conduit RIR1.2
  WARNING 08: elevation drop exceeds length for Conduit RMD1A.2
  WARNING 08: elevation drop exceeds length for Conduit RMD46-J.1
  WARNING 04: minimum elevation drop used for Conduit ROW2.1
  WARNING 04: minimum elevation drop used for Conduit RSS1A.1
  WARNING 04: minimum elevation drop used for Conduit SAB101A.1
  WARNING 04: minimum elevation drop used for Conduit SKC9.2
  WARNING 04: minimum elevation drop used for Conduit SPS160.2
  WARNING 08: elevation drop exceeds length for Conduit SPS35-SW.1
  WARNING 08: elevation drop exceeds length for Conduit SPS35-SW.2
  WARNING 04: minimum elevation drop used for Conduit SSO9.1
  WARNING 04: minimum elevation drop used for Conduit STM20.1
  WARNING 04: minimum elevation drop used for Conduit SYDETANK.3
  WARNING 04: minimum elevation drop used for Conduit TOT14.1
  WARNING 04: minimum elevation drop used for Conduit TRK1G.2
  WARNING 08: elevation drop exceeds length for Conduit WES1.2
  WARNING 04: minimum elevation drop used for Conduit WES88.1
  WARNING 08: elevation drop exceeds length for Conduit WIL54.3
  WARNING 02: maximum depth increased for Node ERS170
  WARNING 02: maximum depth increased for Node ERS170OUTFALL
  WARNING 02: maximum depth increased for Node ERS327
  WARNING 02: maximum depth increased for Node ERS43
  WARNING 02: maximum depth increased for Node MOS1Q
  
  ****************
  Analysis Options
  ****************
  Flow Units ............... CMS
  Process Models:
    Rainfall/Runoff ........ NO
    RDII ................... YES
    Snowmelt ............... NO
    Groundwater ............ NO
    Flow Routing ........... YES
    Ponding Allowed ........ YES
    Water Quality .......... NO
  Infiltration Method ...... HORTON
  Flow Routing Method ...... DYNWAVE
  Surcharge Method ......... EXTRAN
  Starting Date ............ 10/24/2000 00:00:00
  Ending Date .............. 10/25/2000 23:55:00
  Antecedent Dry Days ...... 0.0
  Report Time Step ......... 00:15:00
  Wet Time Step ............ 00:15:00
  Dry Time Step ............ 01:00:00
  Routing Time Step ........ 10.00 sec
  Variable Time Step ....... YES
  Maximum Trials ........... 8
  Number of Threads ........ 1
  Head Tolerance ........... 0.001524 m
  
  
  ERROR 331: cannot open hot start interface file D:\melbourne.ISDB\DWF Save7.HSF.

  Analysis begun on:  Fri Mar  6 14:35:21 2026
  Analysis ended on:  Fri Mar  6 14:35:21 2026
  Total elapsed time: < 1 sec