
  EPA STORM WATER MANAGEMENT MODEL - VERSION 5.2 (Build 5.2.4)
  ------------------------------------------------------------

  
  ERROR 305: cannot open report file.at line 115 of [LID_USAGE] section:
  CA-1	LID-102	1	25.000000	1.000000	0.000000	1.000000	1	"D:\SWMMandSoftware\SWMM5.013_June2018\EPASWMM5.1.013\Swmm5.1.013UpdateTests\SWMM5_NCIMM\CA-1_LID-102.txt"

  
  ERROR 305: cannot open report file.at line 116 of [LID_USAGE] section:
  CA-11	LID-102	1	25.000000	1.000000	0.000000	1.000000	1	"D:\SWMMandSoftware\SWMM5.013_June2018\EPASWMM5.1.013\Swmm5.1.013UpdateTests\SWMM5_NCIMM\CA-11_LID-102.txt"

  
  ERROR 305: cannot open report file.at line 117 of [LID_USAGE] section:
  CA-7	LID-102	1	25.000000	1.000000	0.000000	1.000000	1	"D:\SWMMandSoftware\SWMM5.013_June2018\EPASWMM5.1.013\Swmm5.1.013UpdateTests\SWMM5_NCIMM\CA-7_LID-102.txt"

  
  ERROR 305: cannot open report file.at line 118 of [LID_USAGE] section:
  CA-8	LID-102	1	25.000000	1.000000	0.000000	1.000000	1	"D:\SWMMandSoftware\SWMM5.013_June2018\EPASWMM5.1.013\Swmm5.1.013UpdateTests\SWMM5_NCIMM\CA-8_LID-102.txt"

  
  ERROR 305: cannot open report file.at line 119 of [LID_USAGE] section:
  PLOTCA-1	LID-102	1	25.000000	1.000000	0.000000	1.000000	1	"D:\SWMMandSoftware\SWMM5.013_June2018\EPASWMM5.1.013\Swmm5.1.013UpdateTests\SWMM5_NCIMM\PLOTCA-1_LID-102.txt"

  
  ERROR 305: cannot open report file.at line 120 of [LID_USAGE] section:
  PLOTCA-11	LID-102	1	25.000000	1.000000	0.000000	1.000000	1	"D:\SWMMandSoftware\SWMM5.013_June2018\EPASWMM5.1.013\Swmm5.1.013UpdateTests\SWMM5_NCIMM\PLOTCA-11_LID-102.txt"

  
  ERROR 305: cannot open report file.at line 121 of [LID_USAGE] section:
  PLOTCA-7	LID-102	1	25.000000	1.000000	0.000000	1.000000	1	"D:\SWMMandSoftware\SWMM5.013_June2018\EPASWMM5.1.013\Swmm5.1.013UpdateTests\SWMM5_NCIMM\PLOTCA-7_LID-102.txt"

  
  ERROR 205: invalid keyword GENERAL at line 198 of [CURVE] section:
  10YR_IDF	GENERAL	1.000000	370.020000

  
  ERROR 205: invalid keyword GENERAL at line 211 of [CURVE] section:
  2YR_IDF	GENERAL	1.000000	259.590000


  Analysis begun on:  Fri Mar  6 14:38:28 2026
  Analysis ended on:  Fri Mar  6 14:38:28 2026
  Total elapsed time: < 1 sec