
  EPA STORM WATER MANAGEMENT MODEL - VERSION 5.2 (Build 5.2.4)
  ------------------------------------------------------------

  WARNING 04: minimum elevation drop used for Conduit 87783
  WARNING 03: negative offset ignored for Link 88794
  WARNING 04: minimum elevation drop used for Conduit 88794
  WARNING 04: minimum elevation drop used for Conduit 91463
  WARNING 04: minimum elevation drop used for Conduit 92330-2
  WARNING 03: negative offset ignored for Link 92346
  WARNING 04: minimum elevation drop used for Conduit 92522
  WARNING 03: negative offset ignored for Link 95054
  WARNING 04: minimum elevation drop used for Conduit 9517-3
  WARNING 04: minimum elevation drop used for Conduit 95172-2
  WARNING 03: negative offset ignored for Link 95247
  WARNING 03: negative offset ignored for Link 95249
  WARNING 03: negative offset ignored for Link 95307
  WARNING 04: minimum elevation drop used for Conduit 96200
  WARNING 04: minimum elevation drop used for Conduit 96968
  WARNING 03: negative offset ignored for Link 97165
  WARNING 04: minimum elevation drop used for Conduit 97334
  WARNING 04: minimum elevation drop used for Conduit 97430-2
  WARNING 04: minimum elevation drop used for Conduit 97430-3
  WARNING 03: negative offset ignored for Link 99211
  WARNING 04: minimum elevation drop used for Conduit 99498-2
  WARNING 03: negative offset ignored for Link OUTFALL-PIPE-2
  WARNING 03: negative offset ignored for Link OUTFALL-PIPE-2
  WARNING 04: minimum elevation drop used for Conduit RM-100-01
  WARNING 10: crest elevation raised to downstream invert for regulator Link ORI-11
  WARNING 02: maximum depth increased for Node 23240
  WARNING 02: maximum depth increased for Node 26196
  WARNING 02: maximum depth increased for Node RM-JCT-22
  WARNING 02: maximum depth increased for Node RM-JCT-22_A
  WARNING 02: maximum depth increased for Node RM-JCT-370
  WARNING 02: maximum depth increased for Node RM-JCT-82
  
  ****************
  Analysis Options
  ****************
  Flow Units ............... LPS
  Process Models:
    Rainfall/Runoff ........ NO
    RDII ................... NO
    Snowmelt ............... NO
    Groundwater ............ NO
    Flow Routing ........... YES
    Ponding Allowed ........ NO
    Water Quality .......... NO
  Flow Routing Method ...... DYNWAVE
  Surcharge Method ......... EXTRAN
  Starting Date ............ 06/09/2010 00:00:00
  Ending Date .............. 06/10/2010 23:00:00
  Antecedent Dry Days ...... 5.0
  Report Time Step ......... 00:00:01
  Routing Time Step ........ 1.00 sec
  Variable Time Step ....... YES
  Maximum Trials ........... 8
  Number of Threads ........ 1
  Head Tolerance ........... 0.000100 m
  
  
  **************************        Volume        Volume
  Flow Routing Continuity        hectare-m      10^6 ltr
  **************************     ---------     ---------
  Dry Weather Inflow .......         2.602        26.023
  Wet Weather Inflow .......         0.000         0.000
  Groundwater Inflow .......         0.000         0.000
  RDII Inflow ..............         0.000         0.000
  External Inflow ..........         0.000         0.000
  External Outflow .........         2.210        22.103
  Flooding Loss ............         0.000         0.000
  Evaporation Loss .........         0.000         0.000
  Exfiltration Loss ........         0.000         0.000
  Initial Stored Volume ....         0.016         0.164
  Final Stored Volume ......         0.306         3.065
  Continuity Error (%) .....         3.888
  
  
  *************************
  Highest Continuity Errors
  *************************
  Node 24057 (12.81%)
  Node RM-JCT-274 (-2.42%)
  Node RM-JCT-370 (1.51%)
  Node RM-JCT-22_A (1.37%)
  Node RM-JCT-34 (1.26%)
  
  
  ***************************
  Time-Step Critical Elements
  ***************************
  Link 97430-3 (95.00%)
  Link 92330-2 (1.75%)
  
  
  ********************************
  Highest Flow Instability Indexes
  ********************************
  Link 97281 (64)
  Link 96200 (46)
  Link 92330_2 (39)
  Link 97183 (39)
  Link 96200_2 (39)
  
  
  *********************************
  Most Frequent Nonconverging Nodes
  *********************************
  Node OFALL-SANDY-BAY-LONG (100.00%)
  Node OFALL-SANDY-BAY-SHORT (100.00%)
  Node SELF-PT-STP-INLET (100.00%)
  Node RM-JCT-36 (92.04%)
  Node RM-JCT-38 (88.82%)
  
  
  *************************
  Routing Time Step Summary
  *************************
  Minimum Time Step           :     0.05 sec
  Average Time Step           :     0.60 sec
  Maximum Time Step           :     1.00 sec
  % of Time in Steady State   :     0.00
  Average Iterations per Step :     8.00
  % of Steps Not Converging   :   100.00
  Time Step Frequencies       :
      1.000 -  0.251 sec      :    99.65 %
      0.251 -  0.063 sec      :     0.32 %
      0.063 -  0.016 sec      :     0.03 %
      0.016 -  0.004 sec      :     0.00 %
      0.004 -  0.001 sec      :     0.00 %
  
  
  ******************
  Node Depth Summary
  ******************
  
  ---------------------------------------------------------------------------------
                                 Average  Maximum  Maximum  Time of Max    Reported
                                   Depth    Depth      HGL   Occurrence   Max Depth
  Node                 Type       Meters   Meters   Meters  days hr:min      Meters
  ---------------------------------------------------------------------------------
  000.00               JUNCTION     6.55     7.25    15.53     0  18:10        7.24
  000.00-2             JUNCTION     0.03     0.04     8.32     0  09:40        0.04
  179.73               JUNCTION     0.07     0.09    14.59     0  09:21        0.09
  179.73-2             JUNCTION     0.05     0.08    14.58     0  09:39        0.08
  18034                JUNCTION     7.13     8.84    35.16     0  22:34        8.83
  18037                JUNCTION     4.01     4.12     6.93     0  10:34        4.12
  18039                JUNCTION     2.45     2.63    32.22     0  10:20        2.63
  18137                JUNCTION     0.06     0.08     0.24     0  09:32        0.08
  18403                JUNCTION     0.11     0.15     0.59     0  10:17        0.15
  18404                JUNCTION     0.12     0.15     0.73     0  10:07        0.15
  18405                JUNCTION     0.12     0.15     0.75     0  10:06        0.15
  18406                JUNCTION     0.12     0.15     0.67     0  10:20        0.15
  19955                JUNCTION     0.12     0.16     2.19     0  09:34        0.16
  19956                JUNCTION     0.15     0.19     2.21     0  09:34        0.19
  19957                JUNCTION     0.10     0.14     2.26     0  09:33        0.14
  19958                JUNCTION     0.13     0.17     2.67     0  09:19        0.17
  19966                JUNCTION     0.00     0.02     2.91     0  09:05        0.02
  19995                JUNCTION     0.12     0.16     2.57     0  09:21        0.16
  19996                JUNCTION     0.12     0.15     2.46     0  09:23        0.15
  20002                JUNCTION     0.12     0.16     2.11     0  09:35        0.16
  20003                JUNCTION     0.12     0.16     2.17     0  09:34        0.16
  20011                JUNCTION     0.13     0.17     2.06     0  09:36        0.17
  20066                JUNCTION     0.12     0.16     2.91     0  09:08        0.16
  20069                JUNCTION     0.12     0.16     2.85     0  09:09        0.16
  20071                JUNCTION     0.00     0.03     2.91     0  09:05        0.03
  20072                JUNCTION     0.00     0.00     2.92     0  00:00        0.00
  20462                JUNCTION     0.07     0.08     6.76     0  10:12        0.08
  20560                JUNCTION     0.07     0.08     5.74     0  10:14        0.08
  20561                JUNCTION     0.10     0.12     5.68     0  10:10        0.12
  20562                JUNCTION     0.07     0.08     5.79     0  10:13        0.08
  22772                JUNCTION     0.07     0.08     8.65     0  10:09        0.08
  22776                JUNCTION     0.07     0.08     7.76     0  10:10        0.08
  22777                JUNCTION     0.07     0.08     7.29     0  10:12        0.08
  23178                JUNCTION     0.12     0.16     1.66     0  09:50        0.16
  23179                JUNCTION     0.12     0.16     1.74     0  09:48        0.16
  23205                JUNCTION     0.66     1.80     1.57     0  09:02        1.80
  23207                JUNCTION     0.13     0.16     1.52     0  09:52        0.16
  23220                JUNCTION     0.11     0.14     0.56     0  10:15        0.14
  23221                JUNCTION     0.11     0.14     0.81     0  10:04        0.14
  23227                JUNCTION     0.11     0.14     1.01     0  09:53        0.14
  23228                JUNCTION     0.10     0.13     0.52     0  10:06        0.13
  23229                JUNCTION     9.03    15.88    17.14     0  22:34       11.41
  23231                JUNCTION     0.12     0.16     1.87     0  09:34        0.16
  23232                JUNCTION     0.00     0.00    -0.12     0  00:00        0.00
  23233                JUNCTION     0.00     0.00    -0.15     0  00:00        0.00
  23237                JUNCTION     0.06     0.08     0.45     0  09:06        0.08
  23238                JUNCTION     0.04     0.06     2.16     0  09:40        0.06
  23239                JUNCTION     0.00     0.00     1.43     0  00:00        0.00
  23240                JUNCTION     0.06     0.10     1.38     0  09:40        0.10
  23448                JUNCTION     0.11     0.14     1.25     0  09:54        0.14
  23449                JUNCTION     0.11     0.14     1.22     0  09:52        0.14
  23451                JUNCTION     0.10     0.13     1.31     0  09:55        0.13
  23457                JUNCTION     0.10     0.13     1.43     0  09:46        0.13
  23518                JUNCTION     0.11     0.14     0.87     0  10:02        0.14
  23554                JUNCTION     0.11     0.14     1.11     0  10:00        0.14
  24053                JUNCTION     0.00     0.00     3.28     0  00:00        0.00
  24054                JUNCTION     0.00     0.00     3.14     0  00:00        0.00
  24056                JUNCTION     0.09     0.11     2.99     0  10:19        0.11
  24057                JUNCTION     0.02     0.04     2.90     0  10:18        0.04
  24058                JUNCTION     0.09     0.12     2.90     0  10:19        0.12
  24059                JUNCTION     0.02     0.02     2.67     0  10:03        0.02
  24060                JUNCTION     0.04     0.05     2.86     0  10:03        0.05
  24061                JUNCTION     0.00     0.00     3.28     0  00:00        0.00
  24062                JUNCTION     0.04     0.05     3.06     0  10:02        0.05
  24063                JUNCTION     0.10     0.12     3.63     0  10:18        0.12
  24064                JUNCTION     0.00     0.00     3.08     0  00:00        0.00
  24069                JUNCTION     0.04     0.05     3.67     0  10:01        0.05
  24073                JUNCTION     0.10     0.12     4.55     0  10:17        0.12
  24103                JUNCTION     0.00     0.00     2.95     0  00:00        0.00
  24104                JUNCTION     0.00     0.00     2.93     0  00:00        0.00
  242.37               JUNCTION     0.08     0.11     4.70     0  09:21        0.11
  242.37-2             JUNCTION    10.38    14.45    19.39     0  10:27       14.12
  25011                JUNCTION     0.07     0.08     7.18     0  10:10        0.08
  25315                JUNCTION     0.03     0.05     5.45     0  09:40        0.05
  25319                JUNCTION     0.07     0.08     0.29     0  10:01        0.08
  25322                JUNCTION     0.07     0.08     0.36     0  09:19        0.08
  25323                JUNCTION     0.07     0.08     0.41     0  09:08        0.08
  25325                JUNCTION     0.07     0.08     0.33     0  09:27        0.08
  25326                JUNCTION     0.07     0.08     0.31     0  09:29        0.08
  25327                JUNCTION     0.07     0.09     0.28     0  10:01        0.09
  26193                JUNCTION     0.14     0.17    16.61     0  10:27        0.17
  26194                JUNCTION     0.12     0.15    22.38     0  10:27        0.15
  26195                JUNCTION     0.10     0.12    25.28     0  10:26        0.12
  26196                JUNCTION     0.10     0.12    27.38     0  10:25        0.12
  26199                JUNCTION     0.16     0.20    14.37     0  10:31        0.20
  26359                JUNCTION     0.07     0.08     9.60     0  10:02        0.08
  27424                JUNCTION     0.11     0.13     3.46     0  10:35        0.13
  27430                JUNCTION     0.10     0.12    31.86     0  10:24        0.12
  27431                JUNCTION     0.10     0.12    29.52     0  10:24        0.12
  27432                JUNCTION     3.99     4.10     6.93     0  10:32        4.10
  27433                JUNCTION     0.09     0.11    10.51     0  10:32        0.11
  27434                JUNCTION     0.09     0.11     8.02     0  10:33        0.11
  27435                JUNCTION     1.55     1.70     7.03     0  10:32        1.70
  27436                JUNCTION     0.11     0.13     6.73     0  10:33        0.13
  27437                JUNCTION     0.11     0.13     5.11     0  10:34        0.13
  27438                JUNCTION     1.11     1.21     2.53     0  10:35        1.21
  GS-JCT-152           JUNCTION     0.12     0.16     2.39     0  09:24        0.16
  GS-JCT-154           JUNCTION     0.04     0.05     2.55     0  10:03        0.05
  GS-JCT-156           JUNCTION     0.13     0.17     2.74     0  09:18        0.17
  GS-JCT-184           JUNCTION     0.10     0.13     0.50     0  10:05        0.13
  GS-JCT-186           JUNCTION     0.01     0.01     7.06     0  09:03        0.01
  GS-JCT-190           JUNCTION     0.07     0.08     0.45     0  09:08        0.08
  GS-JCT-216           JUNCTION     0.12     0.16     1.59     0  09:51        0.16
  GS-JCT-220           JUNCTION     0.12     0.16     1.68     0  09:49        0.16
  GS-JCT-252           JUNCTION     0.02     0.03     2.48     0  10:03        0.03
  GS-JCT-254           JUNCTION     0.12     0.16     1.98     0  09:46        0.16
  GS-JCT-280           JUNCTION     0.05     0.07     2.67     0  10:19        0.07
  GS-JCT-342           JUNCTION     0.00     0.00    -0.10     0  00:00        0.00
  GS-JCT-376           JUNCTION     0.05     0.07     0.22     0  09:32        0.07
  RM-JCT-100           JUNCTION    11.08    16.06    21.38     0  09:06       16.06
  RM-JCT-102           JUNCTION    16.79    21.64    21.20     0  09:06       21.64
  RM-JCT-104           JUNCTION    16.91    21.57    20.94     0  09:06       21.57
  RM-JCT-106           JUNCTION    16.90    21.38    20.69     0  09:06       21.38
  RM-JCT-108           JUNCTION    16.65    21.02    20.53     0  09:06       21.02
  RM-JCT-110           JUNCTION    16.50    20.75    20.36     0  09:06       20.75
  RM-JCT-114           JUNCTION    16.98    21.52    20.77     0  09:06       21.52
  RM-JCT-116           JUNCTION    16.27    20.43    20.25     0  09:06       20.43
  RM-JCT-118           JUNCTION    13.33    17.35    20.04     0  09:06       17.35
  RM-JCT-120           JUNCTION    10.16    14.00    19.80     0  09:06       14.00
  RM-JCT-122           JUNCTION    13.24    16.90    19.56     0  09:06       16.90
  RM-JCT-124           JUNCTION    10.48    13.92    19.25     0  09:06       13.92
  RM-JCT-126           JUNCTION    15.37    18.53    18.88     0  09:06       18.53
  RM-JCT-128           JUNCTION    15.60    18.70    18.80     0  09:06       18.70
  RM-JCT-130           JUNCTION     8.87    11.75    18.48     0  18:10       11.75
  RM-JCT-132           JUNCTION     8.46    11.27    18.32     0  18:10       11.27
  RM-JCT-134           JUNCTION     8.46    11.21    18.21     0  18:10       11.20
  RM-JCT-136           JUNCTION     6.29     8.91    18.00     0  18:10        8.90
  RM-JCT-138           JUNCTION     5.91     8.38    17.77     0  18:10        8.37
  RM-JCT-140           JUNCTION     7.17     9.44    17.49     0  18:10        9.42
  RM-JCT-142           JUNCTION     7.48     9.51    17.16     0  18:10        9.49
  RM-JCT-144           JUNCTION     7.53     9.41    16.96     0  18:10        9.39
  RM-JCT-146           JUNCTION     7.71     9.44    16.78     0  18:10        9.43
  RM-JCT-148           JUNCTION     9.74    11.10    16.33     0  18:10       11.08
  RM-JCT-150           JUNCTION    39.76   107.28   112.34     0  22:20      105.24
  RM-JCT-160           JUNCTION     1.67     2.71     1.41     0  09:30        2.71
  RM-JCT-166           JUNCTION     0.83     1.90     1.45     0  09:07        1.90
  RM-JCT-168           JUNCTION     0.66     1.80     1.57     0  09:30        1.80
  RM-JCT-170           JUNCTION     0.00     0.00    -0.23     0  00:00        0.00
  RM-JCT-172           JUNCTION     0.00     0.00    -0.45     0  00:00        0.00
  RM-JCT-174           JUNCTION     0.00     0.00    -0.45     0  00:00        0.00
  RM-JCT-176           JUNCTION     0.00     0.00    -0.49     0  00:00        0.00
  RM-JCT-18            JUNCTION    21.85    24.92    39.37     0  22:36       24.58
  RM-JCT-192           JUNCTION     0.00     0.00    43.00     0  00:00        0.00
  RM-JCT-198           JUNCTION     0.06     0.08    20.38     0  10:27        0.08
  RM-JCT-20            JUNCTION    22.93    26.26    39.65     0  22:36       25.91
  RM-JCT-202           JUNCTION     0.14     0.17    15.91     0  10:28        0.17
  RM-JCT-204           JUNCTION     0.14     0.17    15.11     0  10:30        0.17
  RM-JCT-208           JUNCTION     0.09     0.11    33.28     0  10:23        0.11
  RM-JCT-210           JUNCTION     0.00     0.00    43.00     0  00:00        0.00
  RM-JCT-22            JUNCTION    42.83   113.07   115.98     0  09:51      113.07
  RM-JCT-226           JUNCTION     0.09     0.11    13.55     0  10:32        0.11
  RM-JCT-228           JUNCTION    19.85    23.36    37.36     0  22:34       23.33
  RM-JCT-22_A          JUNCTION    42.79   112.86   115.76     0  09:51      112.86
  RM-JCT-230           JUNCTION    16.45    20.12    37.37     0  22:34       20.07
  RM-JCT-236           JUNCTION    34.10    85.44    88.10     0  22:20       80.92
  RM-JCT-238           JUNCTION    34.89    87.06    89.17     0  22:20       76.87
  RM-JCT-238_2         JUNCTION    34.66    86.58    88.69     0  22:20       80.66
  RM-JCT-242           JUNCTION    17.58    20.43    37.28     0  22:20       20.39
  RM-JCT-246           JUNCTION    19.92    23.05    37.50     0  22:34       23.05
  RM-JCT-248           JUNCTION    20.95    24.17    37.56     0  22:34       24.17
  RM-JCT-250           JUNCTION    22.44    25.73    37.60     0  22:34       25.70
  RM-JCT-258           JUNCTION     0.12     0.16     7.21     0  10:15        0.16
  RM-JCT-26            JUNCTION     0.07     0.10    43.10     0  09:06        0.10
  RM-JCT-260           JUNCTION     0.07     0.10     6.83     0  10:19        0.10
  RM-JCT-262           JUNCTION     0.17     0.25     9.64     0  10:15        0.25
  RM-JCT-264           JUNCTION     0.09     0.12     9.21     0  10:15        0.12
  RM-JCT-266           JUNCTION     0.29     0.44     7.44     0  10:15        0.44
  RM-JCT-268           JUNCTION     5.58     5.93     6.03     0  10:19        5.93
  RM-JCT-270           JUNCTION     4.88     5.09     5.79     0  10:19        5.09
  RM-JCT-272           JUNCTION     0.08     0.10     5.43     0  10:20        0.10
  RM-JCT-274           JUNCTION    17.69    21.30    19.48     0  09:06       21.30
  RM-JCT-276           JUNCTION    36.94    78.36    77.97     0  22:20       76.61
  RM-JCT-278           JUNCTION    37.17    72.62    71.92     0  22:20       70.33
  RM-JCT-28            JUNCTION    19.34    26.09    43.55     0  22:36       26.08
  RM-JCT-282           JUNCTION    37.04    67.95    67.33     0  22:20       63.82
  RM-JCT-284           JUNCTION    37.20    71.57    70.82     0  22:20       68.40
  RM-JCT-288           JUNCTION     5.87     7.65    36.41     0  08:25        7.57
  RM-JCT-290           JUNCTION     0.07     0.08    36.03     0  10:22        0.08
  RM-JCT-292           JUNCTION    10.85    13.05    36.77     0  22:20       13.04
  RM-JCT-294           JUNCTION     8.91    10.99    36.67     0  22:20       10.98
  RM-JCT-296           JUNCTION    31.03    53.15    58.47     0  22:20       49.75
  RM-JCT-298           JUNCTION    36.83    63.96    63.51     0  22:20       59.92
  RM-JCT-30            JUNCTION    29.03   142.39   157.09     0  22:20      141.06
  RM-JCT-300           JUNCTION    36.96    66.26    65.70     0  22:20       62.06
  RM-JCT-302           JUNCTION    10.01    57.20    83.47     0  22:20       28.77
  RM-JCT-304           JUNCTION     3.18    67.29   100.34     0  22:20       26.04
  RM-JCT-306           JUNCTION    20.51    58.02    73.81     0  22:20       41.02
  RM-JCT-308           JUNCTION    36.77    79.57    79.39     0  22:20       78.40
  RM-JCT-310           JUNCTION    30.90    78.98    84.78     0  22:20       77.24
  RM-JCT-312           JUNCTION    13.07    15.63    37.06     0  22:20       15.54
  RM-JCT-314           JUNCTION    12.36    14.75    36.93     0  22:20       14.72
  RM-JCT-318           JUNCTION    23.74    27.10    37.61     0  22:34       27.06
  RM-JCT-32            JUNCTION    26.92    96.31   112.26     0  11:00       95.09
  RM-JCT-320           JUNCTION    32.40    35.87    37.58     0  22:34       35.81
  RM-JCT-322           JUNCTION    32.88    36.31    37.59     0  22:34       36.28
  RM-JCT-324           JUNCTION    31.11    34.60    37.45     0  22:34       34.58
  RM-JCT-326           JUNCTION    33.51    37.00    37.48     0  22:34       36.99
  RM-JCT-328           JUNCTION    28.70    32.19    37.42     0  22:34       32.18
  RM-JCT-334           JUNCTION     4.84     9.52    14.75     0  22:34        7.07
  RM-JCT-336           JUNCTION     6.36    11.23    15.02     0  22:34        8.23
  RM-JCT-338           JUNCTION     2.60     6.23    13.57     0  22:34        5.72
  RM-JCT-34            JUNCTION    31.18   115.67   129.11     0  09:15      104.92
  RM-JCT-340           JUNCTION     2.34     5.96    13.51     0  22:34        5.62
  RM-JCT-346           JUNCTION     0.32     1.17    44.17     0  11:00        1.08
  RM-JCT-348           JUNCTION    12.56    15.95    37.00     0  22:34       15.91
  RM-JCT-350           JUNCTION    16.10    19.26    36.72     0  22:34       19.24
  RM-JCT-352           JUNCTION     5.68     9.31    37.31     0  22:34        9.25
  RM-JCT-356           JUNCTION     9.03    15.80    17.06     0  22:34       11.40
  RM-JCT-358           JUNCTION     2.16     5.53    13.18     0  22:34        5.23
  RM-JCT-36            JUNCTION    42.66   107.22   110.03     0  22:20      103.35
  RM-JCT-360           JUNCTION     1.79     4.54    12.49     0  22:34        4.31
  RM-JCT-362           JUNCTION     1.63     3.73    11.78     0  22:34        3.57
  RM-JCT-370           JUNCTION    16.10    19.17    36.63     0  22:34       19.15
  RM-JCT-378           JUNCTION     0.13     0.17     2.72     0  10:21        0.17
  RM-JCT-378-3         JUNCTION     0.32     3.52     6.02     0  00:00        2.68
  RM-JCT-38            JUNCTION    39.26   108.29   114.89     0  22:20      101.31
  RM-JCT-380           JUNCTION     0.11     0.14     2.69     0  10:20        0.14
  RM-JCT-384           JUNCTION     7.40    16.11    21.05     0  09:10       16.02
  RM-JCT-386           JUNCTION     8.49    12.14    37.39     0  22:34       12.11
  RM-JCT-388           JUNCTION     8.73    15.80    43.80     0  22:36       15.75
  RM-JCT-390           JUNCTION    15.72    22.63    43.68     0  22:36       22.60
  RM-JCT-392           JUNCTION    22.92    93.70   114.00     0  11:00       91.85
  RM-JCT-394           JUNCTION    26.10    97.64   114.08     0  11:00       95.94
  RM-JCT-40            JUNCTION    19.24   123.23   150.49     0  22:20      118.02
  RM-JCT-42            JUNCTION    24.02   135.49   158.49     0  22:20      134.58
  RM-JCT-44            JUNCTION    24.99   138.12   160.35     0  22:20      138.11
  RM-JCT-48            JUNCTION    15.74    99.88   129.47     0  22:20       88.86
  RM-JCT-50            JUNCTION    16.52   148.99   178.52     0  22:21      103.19
  RM-JCT-52            JUNCTION    11.61    99.13   132.30     0  22:21       88.26
  RM-JCT-54            JUNCTION    16.74    93.79   121.46     0  22:21       87.82
  RM-JCT-56            JUNCTION    21.98    84.50   106.58     0  22:21       78.71
  RM-JCT-58            JUNCTION    26.31    69.93    87.39     0  22:21       65.41
  RM-JCT-60            JUNCTION    19.46    26.53    43.78     0  22:36       26.47
  RM-JCT-64            JUNCTION    11.44    18.43    43.68     0  22:36       18.34
  RM-JCT-66            JUNCTION    22.62    29.27    43.27     0  22:36       29.07
  RM-JCT-68            JUNCTION    31.34    37.68    42.91     0  22:36       37.42
  RM-JCT-70            JUNCTION    33.71    39.91    42.76     0  22:36       39.61
  RM-JCT-72            JUNCTION    36.05    42.05    42.53     0  22:36       41.72
  RM-JCT-74            JUNCTION    34.75    39.92    41.63     0  22:36       39.54
  RM-JCT-76            JUNCTION    35.15    39.97    41.25     0  22:36       39.60
  RM-JCT-78            JUNCTION    25.86    29.92    40.43     0  22:36       29.56
  RM-JCT-80            JUNCTION    24.47    28.09    39.96     0  22:36       27.73
  RM-JCT-82            JUNCTION    19.41    21.79    38.64     0  22:36       21.52
  RM-JCT-86            JUNCTION    14.79    16.48    37.91     0  22:36       16.29
  RM-JCT-88            JUNCTION    10.48    11.21    36.89     0  22:36       11.12
  RM-JCT-90            JUNCTION     7.38     7.67    36.43     0  22:36        7.63
  RM-JCT-92            JUNCTION     0.12     0.18    36.13     0  09:06        0.18
  RM-JCT-94            JUNCTION     0.09     0.13    33.18     0  09:48        0.13
  RM-JCT-96            JUNCTION     0.07     0.10    26.37     0  09:58        0.10
  RM-JCT-98            JUNCTION     0.87     5.73    21.52     0  09:06        5.73
  SELFS-PT-FLOW        JUNCTION     1.36     2.06     1.56     0  09:00        2.06
  OFALL-SANDY-BAY-LONG OUTFALL      0.19     0.28    -0.07     0  09:40        0.28
  OFALL-SANDY-BAY-SHORT OUTFALL      0.00     0.00    -1.30     0  00:00        0.00
  SELF-PT-STP-INLET    OUTFALL      0.12     0.14     2.35     0  10:35        0.14
  BLINKING-BILLY-WET-WELL STORAGE      0.28     0.41    -0.97     0  09:33        0.41
  BOH_1                STORAGE      0.31     0.71    43.71     0  09:06        0.71
  BOH_2                STORAGE      0.00     0.00    43.00     0  00:00        0.00
  EFFLUENT-WET-WELL    STORAGE      1.56     2.26     1.56     0  08:54        2.26
  SB-PS1-WET-WELL      STORAGE      2.22     2.37    -0.17     0  10:14        2.37
  SB-PS2-WET-WELL      STORAGE      1.91     1.97     1.20     0  10:22        1.97
  
  
  *******************
  Node Inflow Summary
  *******************
  
  -------------------------------------------------------------------------------------------------
                                  Maximum  Maximum                  Lateral       Total        Flow
                                  Lateral    Total  Time of Max      Inflow      Inflow     Balance
                                   Inflow   Inflow   Occurrence      Volume      Volume       Error
  Node                 Type           LPS      LPS  days hr:min    10^6 ltr    10^6 ltr     Percent
  -------------------------------------------------------------------------------------------------
  000.00               JUNCTION      0.00   177.26     0  09:58           0        12.7       0.353
  000.00-2             JUNCTION      0.00    12.30     0  09:39           0         1.1       0.305
  179.73               JUNCTION      0.00   177.26     0  09:58           0        12.6       0.018
  179.73-2             JUNCTION      0.00    12.34     0  09:37           0         1.1      -0.198
  18034                JUNCTION      0.00    93.01     0  10:23           0        9.76       0.305
  18037                JUNCTION      0.00    92.91     0  10:33           0        9.62       0.069
  18039                JUNCTION      0.00    93.00     0  10:23           0        9.72       0.286
  18137                JUNCTION      1.75    11.38     0  09:31       0.083         1.1       0.038
  18403                JUNCTION      0.00    33.25     0  10:16           0        3.14       0.063
  18404                JUNCTION      0.00    33.25     0  10:06           0        3.14       0.044
  18405                JUNCTION      0.00    33.25     0  10:04           0        3.15       0.064
  18406                JUNCTION      0.00    33.25     0  10:07           0        3.14       0.080
  19955                JUNCTION      0.00    33.25     0  09:33           0         3.2       0.021
  19956                JUNCTION      0.00    33.25     0  09:33           0         3.2       0.053
  19957                JUNCTION      0.00    33.25     0  09:24           0         3.2       0.070
  19958                JUNCTION      0.00    33.28     0  09:18           0        3.21       0.075
  19966                JUNCTION      0.00     0.13     0  09:04           0     9.1e-05       0.401
  19995                JUNCTION      0.00    33.27     0  09:20           0        3.21       0.088
  19996                JUNCTION      0.00    33.27     0  09:21           0        3.21       0.073
  20002                JUNCTION      0.00    33.25     0  09:34           0        3.19       0.066
  20003                JUNCTION      0.00    33.25     0  09:34           0         3.2       0.035
  20011                JUNCTION      0.00    33.25     0  09:35           0        3.19       0.073
  20066                JUNCTION     33.25    33.60     0  09:07        1.58        3.22       0.074
  20069                JUNCTION      0.00    33.46     0  09:08           0        3.22       0.074
  20071                JUNCTION      0.00     1.12     0  08:03           0      0.0013       0.611
  20072                JUNCTION      0.00     0.00     0  00:00           0           0       0.000 ltr
  20462                JUNCTION      0.00    21.42     0  10:11           0        2.38       0.052
  20560                JUNCTION      0.00    21.42     0  10:14           0        2.38       0.006
  20561                JUNCTION     21.42    42.84     0  10:14        1.17        4.77       0.036
  20562                JUNCTION      0.00    21.42     0  10:13           0        2.38       0.042
  22772                JUNCTION      0.00    21.43     0  10:03           0        2.39       0.068
  22776                JUNCTION      0.00    21.42     0  10:09           0        2.39       0.054
  22777                JUNCTION      0.00    21.42     0  10:10           0        2.39       0.023
  23178                JUNCTION      0.00    33.25     0  09:48           0        3.18       0.050
  23179                JUNCTION      0.00    33.25     0  09:39           0        3.18       0.111
  23205                JUNCTION      0.00   173.56     0  09:21           0        12.6       0.046
  23207                JUNCTION      0.00    33.25     0  09:51           0        3.17       0.076
  23220                JUNCTION      0.00    33.28     0  10:18           0        3.14       0.036
  23221                JUNCTION      0.00    33.25     0  10:02           0        3.15       0.081
  23227                JUNCTION      0.00    33.25     0  10:00           0        3.16       0.151
  23228                JUNCTION      0.00    33.36     0  10:17           0        3.14       0.028
  23229                JUNCTION      0.00    46.47     0  10:14           0        4.35       0.004
  23231                JUNCTION      0.00    33.25     0  09:46           0        3.19       0.136
  23232                JUNCTION      0.00     0.00     0  00:00           0           0       0.000 ltr
  23233                JUNCTION      0.00     0.00     0  00:00           0           0       0.000 ltr
  23237                JUNCTION      0.00     0.60     0  08:00           0     0.00176       4.272
  23238                JUNCTION      0.00    13.53     0  09:40           0        1.22      -0.015
  23239                JUNCTION      0.00     0.00     0  00:00           0           0       0.000 ltr
  23240                JUNCTION      0.00    13.53     0  09:40           0        1.22       0.043
  23448                JUNCTION      0.00    33.25     0  09:55           0        3.17       0.067
  23449                JUNCTION      0.00    33.25     0  09:56           0        3.16       0.078
  23451                JUNCTION      0.00    33.25     0  09:50           0        3.17       0.106
  23457                JUNCTION      0.00    33.25     0  09:52           0        3.17       0.083
  23518                JUNCTION      0.00    33.25     0  09:58           0        3.15       0.134
  23554                JUNCTION      0.00    33.25     0  09:55           0        3.16       0.130
  24053                JUNCTION      0.00     0.00     0  00:00           0           0       0.000 ltr
  24054                JUNCTION      0.00     0.00     0  00:00           0           0       0.000 ltr
  24056                JUNCTION      0.00    42.84     0  10:18           0        4.76       0.022
  24057                JUNCTION      0.00     0.09     0  08:03           0     0.00015      14.686
  24058                JUNCTION      0.00    42.87     0  10:18           0        4.76       0.008
  24059                JUNCTION      0.00     4.44     0  10:03           0       0.495       0.005
  24060                JUNCTION      0.00     4.44     0  10:02           0       0.495       0.017
  24061                JUNCTION      0.00     0.00     0  00:00           0           0       0.000 ltr
  24062                JUNCTION      0.00     4.44     0  10:01           0       0.495       0.026
  24063                JUNCTION      0.00    42.84     0  10:17           0        4.77       0.050
  24064                JUNCTION      0.00     0.00     0  00:00           0           0       0.000 ltr
  24069                JUNCTION      4.44     4.44     0  10:00       0.242       0.495       0.017
  24073                JUNCTION      0.00    42.84     0  10:12           0        4.77       0.065
  24103                JUNCTION      0.00     0.00     0  00:00           0           0       0.000 ltr
  24104                JUNCTION      0.00     0.00     0  00:00           0           0       0.000 ltr
  242.37               JUNCTION      0.00   174.26     0  09:21           0        12.6       0.009
  242.37-2             JUNCTION      0.00    12.34     0  09:37           0         1.1       0.037
  25011                JUNCTION      0.00    21.42     0  10:11           0        2.38       0.019
  25315                JUNCTION      0.00    13.53     0  09:40           0        1.22       0.015
  25319                JUNCTION      0.00     9.63     0  09:28           0       0.928       0.051
  25322                JUNCTION      0.00     9.63     0  09:10           0        0.93       0.110
  25323                JUNCTION      0.00     9.63     0  09:09           0       0.931       0.109
  25325                JUNCTION      0.00     9.63     0  09:18           0       0.929       0.065
  25326                JUNCTION      0.00     9.63     0  09:24           0       0.928       0.058
  25327                JUNCTION      0.00     9.63     0  10:00           0       0.927       0.070
  26193                JUNCTION      0.00    92.96     0  10:27           0        9.67       0.037
  26194                JUNCTION      0.00    92.98     0  10:26           0        9.68       0.051
  26195                JUNCTION      0.00    92.99     0  10:25           0        9.68       0.041
  26196                JUNCTION      0.00    92.99     0  10:24           0        9.68       0.035
  26199                JUNCTION      0.00    92.92     0  10:30           0        9.65       0.082
  26359                JUNCTION     21.42    21.42     0  10:00        1.17        2.39       0.033
  27424                JUNCTION      0.00    92.88     0  10:34           0         9.6       0.025
  27430                JUNCTION      0.00    93.00     0  10:23           0        9.69       0.060
  27431                JUNCTION      0.00    92.99     0  10:24           0        9.69       0.037
  27432                JUNCTION      0.00    92.89     0  10:33           0        9.63       0.090
  27433                JUNCTION      0.00    92.89     0  10:32           0        9.64       0.040
  27434                JUNCTION      0.00    92.89     0  10:32           0        9.64       0.026
  27435                JUNCTION      0.00    92.89     0  10:33           0        9.64       0.142
  27436                JUNCTION      0.00    92.89     0  10:33           0        9.61       0.037
  27437                JUNCTION      0.00    92.88     0  10:33           0         9.6       0.061
  27438                JUNCTION      0.00    92.87     0  10:35           0        9.59       0.170
  GS-JCT-152           JUNCTION      0.00    33.26     0  09:23           0         3.2       0.083
  GS-JCT-154           JUNCTION      0.00     4.44     0  10:03           0       0.495       0.009
  GS-JCT-156           JUNCTION      0.00    33.33     0  09:09           0        3.21       0.087
  GS-JCT-184           JUNCTION      0.00    46.68     0  10:05           0        4.35       0.009
  GS-JCT-186           JUNCTION      1.22     1.22     0  09:00      0.0581       0.119       0.011
  GS-JCT-190           JUNCTION      9.62     9.78     0  09:02       0.457       0.933       0.042
  GS-JCT-216           JUNCTION      0.00    33.25     0  09:50           0        3.18       0.078
  GS-JCT-220           JUNCTION      0.00    33.25     0  09:43           0        3.18       0.047
  GS-JCT-252           JUNCTION      0.00     4.44     0  10:03           0       0.494       0.006
  GS-JCT-254           JUNCTION      0.00    33.25     0  09:37           0        3.19       0.101
  GS-JCT-280           JUNCTION      0.00    42.85     0  10:19           0        4.76       0.003
  GS-JCT-342           JUNCTION      0.00     0.00     0  00:00           0           0       0.000 ltr
  GS-JCT-376           JUNCTION      0.00    11.38     0  09:32           0         1.1       0.008
  RM-JCT-100           JUNCTION      0.00   176.41     0  09:58           0          14       0.129
  RM-JCT-102           JUNCTION      0.00   176.45     0  09:58           0          14       0.166
  RM-JCT-104           JUNCTION      0.00   176.48     0  09:58           0        13.9       0.172
  RM-JCT-106           JUNCTION      0.00   176.59     0  09:58           0        13.9       0.099
  RM-JCT-108           JUNCTION      0.00   176.66     0  09:58           0        13.9       0.131
  RM-JCT-110           JUNCTION      0.00   176.71     0  09:58           0        13.9       0.112
  RM-JCT-114           JUNCTION      0.00   176.52     0  09:58           0        13.9       0.105
  RM-JCT-116           JUNCTION      0.00   176.77     0  09:58           0        13.9       0.124
  RM-JCT-118           JUNCTION      0.00   176.82     0  09:58           0        13.8       0.173
  RM-JCT-120           JUNCTION      0.00   176.85     0  09:58           0        13.8       0.185
  RM-JCT-122           JUNCTION      0.00   176.90     0  09:58           0        13.8       0.133
  RM-JCT-124           JUNCTION      0.00   177.00     0  09:58           0        13.1       0.235
  RM-JCT-126           JUNCTION      0.00   177.04     0  09:58           0          13       0.194
  RM-JCT-128           JUNCTION      0.00   177.08     0  09:58           0          13       0.195
  RM-JCT-130           JUNCTION      0.00   177.12     0  09:58           0          13       0.296
  RM-JCT-132           JUNCTION      0.00   177.14     0  09:58           0        12.9       0.214
  RM-JCT-134           JUNCTION      0.00   177.17     0  09:58           0        12.9       0.215
  RM-JCT-136           JUNCTION      0.00   177.18     0  09:58           0        12.9       0.257
  RM-JCT-138           JUNCTION      0.00   177.20     0  09:58           0        12.9       0.251
  RM-JCT-140           JUNCTION      0.00   177.21     0  09:58           0        12.8       0.278
  RM-JCT-142           JUNCTION      0.00   177.22     0  09:58           0        12.8       0.229
  RM-JCT-144           JUNCTION      0.00   177.23     0  09:58           0        12.8       0.132
  RM-JCT-146           JUNCTION      0.00   177.25     0  09:58           0        12.7       0.183
  RM-JCT-148           JUNCTION      0.00   177.26     0  09:58           0        12.7       0.360
  RM-JCT-150           JUNCTION      0.00   271.24     0  10:02           0        16.1       0.540
  RM-JCT-160           JUNCTION      0.00   174.04     0  09:40           0        12.6       0.652
  RM-JCT-166           JUNCTION      0.00   173.85     0  09:40           0        12.6       0.066
  RM-JCT-168           JUNCTION      0.00   173.63     0  09:21           0        12.6       0.046
  RM-JCT-170           JUNCTION      0.00     0.00     0  00:00           0           0       0.000 ltr
  RM-JCT-172           JUNCTION      0.00     0.00     0  00:00           0           0       0.000 ltr
  RM-JCT-174           JUNCTION      0.00     0.00     0  00:00           0           0       0.000 ltr
  RM-JCT-176           JUNCTION      0.00     0.00     0  00:00           0           0       0.000 ltr
  RM-JCT-18            JUNCTION      0.00   206.51     0  09:24           0        14.2       0.199
  RM-JCT-192           JUNCTION      0.00     0.00     0  00:00           0           0       0.000 ltr
  RM-JCT-198           JUNCTION      0.00    92.96     0  10:27           0        9.67       0.012
  RM-JCT-20            JUNCTION      0.00   206.34     0  09:24           0        14.2       0.127
  RM-JCT-202           JUNCTION      0.00    92.96     0  10:27           0        9.67       0.069
  RM-JCT-204           JUNCTION      0.00    92.95     0  10:29           0        9.66       0.072
  RM-JCT-208           JUNCTION      0.00    93.01     0  10:23           0        9.73       0.042
  RM-JCT-210           JUNCTION      0.00     0.00     0  00:00           0           0       0.000 ltr
  RM-JCT-22            JUNCTION      0.00   260.00     0  08:25           0        16.3       0.346
  RM-JCT-226           JUNCTION      0.00    92.89     0  10:31           0        9.65       0.036
  RM-JCT-228           JUNCTION      0.00    93.01     0  10:22           0          10       0.349
  RM-JCT-22_A          JUNCTION      0.00   265.59     0  10:02           0        16.3       1.384
  RM-JCT-230           JUNCTION      0.00    93.01     0  10:23           0        9.94       0.131
  RM-JCT-236           JUNCTION      0.00   101.02     0  22:34           0        10.5      -0.077
  RM-JCT-238           JUNCTION      0.00    93.01     0  10:22           0        10.5      -0.228
  RM-JCT-238_2         JUNCTION      0.00    93.01     0  10:22           0        10.6       0.396
  RM-JCT-242           JUNCTION      0.00    93.01     0  10:22           0        10.2       0.249
  RM-JCT-246           JUNCTION      0.00    93.01     0  10:23           0        10.2       0.184
  RM-JCT-248           JUNCTION      0.00    93.01     0  10:23           0        10.2       0.114
  RM-JCT-250           JUNCTION      0.00    93.01     0  10:23           0        10.2       0.159
  RM-JCT-258           JUNCTION      0.00    46.20     0  10:15           0        4.26       0.118
  RM-JCT-26            JUNCTION      0.00   213.87     0  09:06           0        14.7       0.012
  RM-JCT-260           JUNCTION      0.00    46.26     0  10:17           0        4.26       0.073
  RM-JCT-262           JUNCTION      0.00    46.47     0  10:14           0        4.28       0.164
  RM-JCT-264           JUNCTION      0.00    46.25     0  10:15           0        4.28       0.071
  RM-JCT-266           JUNCTION      0.00    46.20     0  10:15           0        4.27       0.227
  RM-JCT-268           JUNCTION      0.00    45.82     0  10:19           0        4.26       0.284
  RM-JCT-270           JUNCTION      0.00    45.82     0  10:19           0        4.24       0.197
  RM-JCT-272           JUNCTION      0.00    45.82     0  10:19           0        4.24       0.054
  RM-JCT-274           JUNCTION    -25.00   176.95     0  09:58      -0.522        13.8      -2.361
  RM-JCT-276           JUNCTION      0.00   133.15     0  22:34           0        10.4       0.156
  RM-JCT-278           JUNCTION      0.00   138.73     0  22:34           0        10.4       0.201
  RM-JCT-28            JUNCTION      0.00   203.22     0  09:06           0        14.7       0.264
  RM-JCT-282           JUNCTION      0.00   155.98     0  22:34           0        10.4       0.107
  RM-JCT-284           JUNCTION      0.00   145.99     0  22:34           0        10.4       0.127
  RM-JCT-288           JUNCTION      0.00    93.01     0  10:22           0        10.3       0.107
  RM-JCT-290           JUNCTION      0.00   134.73     0  22:34           0        10.3       0.018
  RM-JCT-292           JUNCTION      0.00    93.01     0  10:22           0        10.3       0.096
  RM-JCT-294           JUNCTION      0.00    93.01     0  10:22           0        10.3       0.110
  RM-JCT-296           JUNCTION      0.00   200.46     0  22:34           0        10.4       0.147
  RM-JCT-298           JUNCTION      0.00   188.78     0  22:34           0        10.4       0.107
  RM-JCT-30            JUNCTION      0.00   270.58     0  10:02           0        16.4       1.037
  RM-JCT-300           JUNCTION      0.00   169.26     0  22:34           0        10.4       0.054
  RM-JCT-302           JUNCTION      0.00   208.03     0  22:34           0        10.3       0.145
  RM-JCT-304           JUNCTION      0.00   219.46     0  22:34           0        10.3       0.204
  RM-JCT-306           JUNCTION      0.00   204.76     0  22:34           0        10.3       0.125
  RM-JCT-308           JUNCTION      0.00   126.96     0  22:34           0        10.5       0.243
  RM-JCT-310           JUNCTION      0.00   158.65     0  22:34           0        10.5       0.597
  RM-JCT-312           JUNCTION      0.00    93.01     0  10:22           0        10.2       0.194
  RM-JCT-314           JUNCTION      0.00    93.01     0  10:22           0        10.3       0.139
  RM-JCT-318           JUNCTION      0.00    93.01     0  10:23           0        10.2       0.275
  RM-JCT-32            JUNCTION      0.00   269.84     0  10:02           0        16.4       0.876
  RM-JCT-320           JUNCTION      0.00    93.01     0  10:23           0        10.1       0.307
  RM-JCT-322           JUNCTION      0.00    93.01     0  10:22           0        10.1       0.275
  RM-JCT-324           JUNCTION      0.00    93.01     0  10:22           0          10       0.125
  RM-JCT-326           JUNCTION      0.00    93.01     0  10:22           0        10.1       0.321
  RM-JCT-328           JUNCTION      0.00    93.01     0  10:23           0          10       0.204
  RM-JCT-334           JUNCTION      0.00    46.47     0  10:14           0        4.33       0.218
  RM-JCT-336           JUNCTION      0.00    46.47     0  10:14           0        4.34       0.223
  RM-JCT-338           JUNCTION      0.00    46.47     0  10:14           0        4.32       0.193
  RM-JCT-34            JUNCTION      0.00   271.01     0  10:02           0        16.3       1.274
  RM-JCT-340           JUNCTION      0.00    46.47     0  10:14           0        4.31       0.136
  RM-JCT-346           JUNCTION      0.00   273.05     0  10:02           0          16      -0.053
  RM-JCT-348           JUNCTION      0.00    93.01     0  10:23           0        9.91       0.227
  RM-JCT-350           JUNCTION      0.00    93.01     0  10:23           0        9.89      -0.146
  RM-JCT-352           JUNCTION      0.00    93.01     0  10:23           0        9.93       0.170
  RM-JCT-356           JUNCTION      0.00    46.47     0  10:14           0        4.35       0.164
  RM-JCT-358           JUNCTION      0.00    46.47     0  10:14           0        4.31       0.161
  RM-JCT-36            JUNCTION      0.00   271.21     0  10:02           0          16       0.293
  RM-JCT-360           JUNCTION      0.00    46.47     0  10:14           0         4.3       0.141
  RM-JCT-362           JUNCTION      0.00    46.47     0  10:14           0        4.29       0.205
  RM-JCT-370           JUNCTION      0.00    93.01     0  10:23           0         9.9       1.531
  RM-JCT-378           JUNCTION      0.00    88.64     0  10:21           0        10.1       0.009
  RM-JCT-378-3         JUNCTION     25.00    25.00     0  03:00       0.522        1.04      -0.014
  RM-JCT-38            JUNCTION      0.00   271.37     0  10:02           0          16       0.374
  RM-JCT-380           JUNCTION      0.00    45.81     0  10:20           0        4.25       0.036
  RM-JCT-384           JUNCTION      0.00    12.34     0  09:37           0         1.1      -0.151
  RM-JCT-386           JUNCTION      0.00    93.01     0  10:23           0        9.97       0.276
  RM-JCT-388           JUNCTION      0.00   203.57     0  09:43           0        14.6       0.186
  RM-JCT-390           JUNCTION      0.00   203.35     0  09:43           0        14.6       0.233
  RM-JCT-392           JUNCTION      0.00   267.20     0  09:14           0        15.3       0.338
  RM-JCT-394           JUNCTION      0.00   268.00     0  08:37           0        15.8       0.572
  RM-JCT-40            JUNCTION      0.00   268.89     0  08:43           0        16.2       0.802
  RM-JCT-42            JUNCTION      0.00   267.62     0  09:52           0        15.8       0.374
  RM-JCT-44            JUNCTION      0.00   267.21     0  09:52           0        15.4       0.242
  RM-JCT-48            JUNCTION      0.00   270.43     0  08:55           0        16.9       0.278
  RM-JCT-50            JUNCTION      0.00   286.36     0  22:21           0        16.7       1.008
  RM-JCT-52            JUNCTION      0.00   270.94     0  08:55           0          17       0.381
  RM-JCT-54            JUNCTION      0.00   271.88     0  10:02           0        17.1       0.057
  RM-JCT-56            JUNCTION      0.00   272.41     0  10:02           0        17.2       0.073
  RM-JCT-58            JUNCTION      0.00   272.82     0  10:02           0        17.3       0.103
  RM-JCT-60            JUNCTION      0.00   204.13     0  09:24           0        14.6       0.138
  RM-JCT-64            JUNCTION      0.00   204.53     0  09:24           0        14.5       0.288
  RM-JCT-66            JUNCTION      0.00   204.89     0  09:24           0        14.5       0.377
  RM-JCT-68            JUNCTION      0.00   205.02     0  09:24           0        14.5       0.226
  RM-JCT-70            JUNCTION      0.00   205.26     0  09:24           0        14.4       0.135
  RM-JCT-72            JUNCTION      0.00   205.58     0  09:24           0        14.4       0.333
  RM-JCT-74            JUNCTION      0.00   205.76     0  09:24           0        14.4       0.347
  RM-JCT-76            JUNCTION      0.00   205.97     0  09:24           0        14.3       0.314
  RM-JCT-78            JUNCTION      0.00   206.10     0  09:24           0        14.3       0.306
  RM-JCT-80            JUNCTION      0.00   206.20     0  09:24           0        14.2       0.181
  RM-JCT-82            JUNCTION      0.00   206.63     0  09:24           0        14.1       0.281
  RM-JCT-86            JUNCTION      0.00   206.69     0  09:24           0        14.1       0.333
  RM-JCT-88            JUNCTION      0.00   206.73     0  09:24           0        14.1       0.281
  RM-JCT-90            JUNCTION      0.00   206.75     0  09:24           0          14       0.127
  RM-JCT-92            JUNCTION      0.00   206.77     0  09:24           0          14       0.017
  RM-JCT-94            JUNCTION      0.00   184.75     0  09:48           0          14       0.027
  RM-JCT-96            JUNCTION      0.00   178.08     0  09:58           0          14       0.010
  RM-JCT-98            JUNCTION      0.00   176.39     0  09:58           0          14       0.011
  SELFS-PT-FLOW        JUNCTION    149.92   149.92     0  09:00        8.02        16.3      -0.006
  OFALL-SANDY-BAY-LONG OUTFALL       0.00   174.04     0  09:40           0        12.5       0.000
  OFALL-SANDY-BAY-SHORT OUTFALL       0.00     0.00     0  00:00           0           0       0.000 ltr
  SELF-PT-STP-INLET    OUTFALL       0.00    92.87     0  10:35           0        9.58       0.000
  BLINKING-BILLY-WET-WELL STORAGE       0.00    11.38     0  09:32           0         1.1       0.004
  BOH_1                STORAGE       0.00   273.24     0  10:02           0        14.7      -0.006
  BOH_2                STORAGE       0.00     0.00     0  00:00           0           0       0.000 ltr
  EFFLUENT-WET-WELL    STORAGE       0.00   150.30     0  09:00           0        16.4      -0.016
  SB-PS1-WET-WELL      STORAGE       0.00    46.68     0  10:05           0        4.39       0.000
  SB-PS2-WET-WELL      STORAGE       0.00    93.07     0  10:21           0        10.6      -0.002
  
  
  **********************
  Node Surcharge Summary
  **********************
  
  Surcharging occurs when water rises above the top of the highest conduit.
  ---------------------------------------------------------------------
                                               Max. Height   Min. Depth
                                   Hours       Above Crown    Below Rim
  Node                 Type      Surcharged         Meters       Meters
  ---------------------------------------------------------------------
  000.00               JUNCTION       23.00          6.764        0.000
  18034                JUNCTION       23.00          8.427        0.000
  18037                JUNCTION       23.00          3.707        0.000
  18039                JUNCTION       23.00          2.214        0.000
  23205                JUNCTION       15.08          1.317        0.512
  23229                JUNCTION       23.00         15.569        0.000
  242.37-2             JUNCTION       23.00         14.346        0.000
  27432                JUNCTION       23.00          3.682        6.316
  27435                JUNCTION       23.00          1.286        6.498
  27438                JUNCTION       23.00          0.793        0.669
  RM-JCT-100           JUNCTION       23.00         15.575        0.000
  RM-JCT-102           JUNCTION       23.00         21.160        0.000
  RM-JCT-104           JUNCTION       23.00         21.088        0.000
  RM-JCT-106           JUNCTION       23.00         20.901        0.000
  RM-JCT-108           JUNCTION       23.00         20.535        0.000
  RM-JCT-110           JUNCTION       23.00         20.265        0.000
  RM-JCT-114           JUNCTION       23.00         21.041        0.000
  RM-JCT-116           JUNCTION       23.00         19.949        0.000
  RM-JCT-118           JUNCTION       23.00         16.866        0.000
  RM-JCT-120           JUNCTION       23.00         13.522        0.000
  RM-JCT-122           JUNCTION       23.00         16.420        0.000
  RM-JCT-124           JUNCTION       23.00         13.437        0.000
  RM-JCT-126           JUNCTION       23.00         18.048        0.000
  RM-JCT-128           JUNCTION       23.00         18.218        0.000
  RM-JCT-130           JUNCTION       23.00         11.270        0.000
  RM-JCT-132           JUNCTION       23.00         10.790        0.000
  RM-JCT-134           JUNCTION       23.00         10.723        0.000
  RM-JCT-136           JUNCTION       23.00          8.426        0.000
  RM-JCT-138           JUNCTION       23.00          7.895        0.000
  RM-JCT-140           JUNCTION       23.00          8.953        0.000
  RM-JCT-142           JUNCTION       23.00          9.024        0.000
  RM-JCT-144           JUNCTION       23.00          8.923        0.000
  RM-JCT-146           JUNCTION       23.00          8.958        0.000
  RM-JCT-148           JUNCTION       23.00         10.612        0.000
  RM-JCT-150           JUNCTION       22.91        106.893        0.000
  RM-JCT-160           JUNCTION       23.00          2.183        0.000
  RM-JCT-166           JUNCTION       15.94          1.371        0.572
  RM-JCT-168           JUNCTION       15.23          1.334        0.514
  RM-JCT-18            JUNCTION       23.00         24.361        0.000
  RM-JCT-20            JUNCTION       23.00         25.704        0.000
  RM-JCT-22            JUNCTION       19.29        112.680        0.000
  RM-JCT-228           JUNCTION       23.00         22.914        0.000
  RM-JCT-22_A          JUNCTION       21.58        112.465        0.000
  RM-JCT-230           JUNCTION       23.00         19.675        0.000
  RM-JCT-236           JUNCTION       23.00         84.995        0.000
  RM-JCT-238           JUNCTION       23.00         86.759        0.000
  RM-JCT-238_2         JUNCTION       23.00         86.134        0.000
  RM-JCT-242           JUNCTION       23.00         19.985        0.000
  RM-JCT-246           JUNCTION       23.00         22.606        0.000
  RM-JCT-248           JUNCTION       23.00         23.727        0.000
  RM-JCT-250           JUNCTION       23.00         25.286        0.000
  RM-JCT-266           JUNCTION        8.82          0.153        0.563
  RM-JCT-268           JUNCTION       23.00          5.650        0.000
  RM-JCT-270           JUNCTION       23.00          4.810        0.000
  RM-JCT-274           JUNCTION       23.00         16.853        0.000
  RM-JCT-276           JUNCTION       23.00         77.914        0.000
  RM-JCT-278           JUNCTION       23.00         72.171        0.000
  RM-JCT-28            JUNCTION       23.00         25.536        0.000
  RM-JCT-282           JUNCTION       23.00         67.508        0.000
  RM-JCT-284           JUNCTION       23.00         71.123        0.000
  RM-JCT-288           JUNCTION       23.00          7.203        0.000
  RM-JCT-292           JUNCTION       23.00         12.603        0.000
  RM-JCT-294           JUNCTION       23.00         10.542        0.000
  RM-JCT-296           JUNCTION       23.00         52.703        0.000
  RM-JCT-298           JUNCTION       23.00         63.510        0.000
  RM-JCT-30            JUNCTION       22.91        141.996        0.000
  RM-JCT-300           JUNCTION       23.00         65.818        0.000
  RM-JCT-302           JUNCTION       23.00         56.755        0.000
  RM-JCT-304           JUNCTION       23.00         66.849        0.000
  RM-JCT-306           JUNCTION       23.00         57.575        0.000
  RM-JCT-308           JUNCTION       23.00         79.130        0.000
  RM-JCT-310           JUNCTION       23.00         78.533        0.000
  RM-JCT-312           JUNCTION       23.00         15.187        0.000
  RM-JCT-314           JUNCTION       23.00         14.309        0.000
  RM-JCT-318           JUNCTION       23.00         26.652        0.000
  RM-JCT-32            JUNCTION       22.57         95.919        0.000
  RM-JCT-320           JUNCTION       23.00         35.426        0.000
  RM-JCT-322           JUNCTION       23.00         35.868        0.000
  RM-JCT-324           JUNCTION       23.00         34.155        0.000
  RM-JCT-326           JUNCTION       23.00         36.560        0.000
  RM-JCT-328           JUNCTION       23.00         31.748        0.000
  RM-JCT-334           JUNCTION       23.00          9.233        0.000
  RM-JCT-336           JUNCTION       23.00         10.946        0.000
  RM-JCT-338           JUNCTION       23.00          5.944        0.000
  RM-JCT-34            JUNCTION       21.97        115.277        0.000
  RM-JCT-340           JUNCTION       23.00          5.679        0.000
  RM-JCT-346           JUNCTION        0.88          0.776        0.832
  RM-JCT-348           JUNCTION       23.00         15.510        0.000
  RM-JCT-350           JUNCTION       23.00         18.816        0.000
  RM-JCT-352           JUNCTION       23.00          8.870        0.000
  RM-JCT-356           JUNCTION       23.00         15.485        0.000
  RM-JCT-358           JUNCTION       23.00          5.250        0.000
  RM-JCT-36            JUNCTION       23.00        106.824        0.000
  RM-JCT-360           JUNCTION       23.00          4.253        0.000
  RM-JCT-362           JUNCTION       23.00          3.446        0.000
  RM-JCT-370           JUNCTION       23.00         17.075        0.000
  RM-JCT-378-3         JUNCTION       22.99          3.399        0.000
  RM-JCT-38            JUNCTION       23.00        107.896        0.000
  RM-JCT-384           JUNCTION       17.89         16.008        0.000
  RM-JCT-386           JUNCTION       23.00         11.698        0.000
  RM-JCT-388           JUNCTION       23.00         15.240        0.000
  RM-JCT-390           JUNCTION       23.00         22.072        0.000
  RM-JCT-392           JUNCTION       19.62         93.305        0.000
  RM-JCT-394           JUNCTION       18.79         97.252        0.000
  RM-JCT-40            JUNCTION       21.42        122.838        0.000
  RM-JCT-42            JUNCTION       23.00        135.102        0.000
  RM-JCT-44            JUNCTION       22.49        137.732        0.000
  RM-JCT-48            JUNCTION       23.00         99.487        0.000
  RM-JCT-50            JUNCTION       21.21        148.594        0.000
  RM-JCT-52            JUNCTION       22.99         98.740        0.000
  RM-JCT-54            JUNCTION       23.00         93.399        0.000
  RM-JCT-56            JUNCTION       23.00         84.110        0.000
  RM-JCT-58            JUNCTION       23.00         69.535        0.000
  RM-JCT-60            JUNCTION       23.00         25.975        0.000
  RM-JCT-64            JUNCTION       23.00         17.879        0.000
  RM-JCT-66            JUNCTION       23.00         28.713        0.000
  RM-JCT-68            JUNCTION       23.00         37.126        0.000
  RM-JCT-70            JUNCTION       23.00         39.353        0.000
  RM-JCT-72            JUNCTION       23.00         41.492        0.000
  RM-JCT-74            JUNCTION       23.00         39.363        0.000
  RM-JCT-76            JUNCTION       23.00         39.420        0.000
  RM-JCT-78            JUNCTION       23.00         29.366        0.000
  RM-JCT-80            JUNCTION       23.00         27.535        0.000
  RM-JCT-82            JUNCTION       23.00         21.237        0.000
  RM-JCT-86            JUNCTION       23.00         15.927        0.000
  RM-JCT-88            JUNCTION       23.00         10.652        0.000
  RM-JCT-90            JUNCTION       23.00          7.114        0.000
  RM-JCT-98            JUNCTION        8.08          5.247        0.000
  SELFS-PT-FLOW        JUNCTION       23.00          1.163        2.337
  
  
  *********************
  Node Flooding Summary
  *********************
  
  No nodes were flooded.
  
  
  **********************
  Storage Volume Summary
  **********************
  
  ------------------------------------------------------------------------------------------------
                         Average    Avg   Evap  Exfil     Maximum    Max    Time of Max    Maximum
                          Volume   Pcnt   Pcnt   Pcnt      Volume   Pcnt     Occurrence    Outflow
  Storage Unit           1000 mł   Full   Loss   Loss     1000 mł   Full    days hr:min        LPS
  ------------------------------------------------------------------------------------------------
  BLINKING-BILLY-WET-WELL     0.001    9.4    0.0    0.0       0.002   13.7       0  09:33      12.34
  BOH_1                    0.003   18.3    0.0    0.0       0.006   42.0       0  09:06     233.15
  BOH_2                    0.000    0.0    0.0    0.0       0.000    0.0       0  00:00       0.00
  EFFLUENT-WET-WELL        0.036   39.9    0.0    0.0       0.052   57.9       0  08:54     260.00
  SB-PS1-WET-WELL          0.048   45.8    0.0    0.0       0.053   50.2       0  10:14      46.47
  SB-PS2-WET-WELL          0.050   35.1    0.0    0.0       0.052   36.6       0  10:22      93.01
  
  
  ***********************
  Outfall Loading Summary
  ***********************
  
  -----------------------------------------------------------
                         Flow       Avg       Max       Total
                         Freq      Flow      Flow      Volume
  Outfall Node           Pcnt       LPS       LPS    10^6 ltr
  -----------------------------------------------------------
  OFALL-SANDY-BAY-LONG 100.00     88.85    174.04      12.524
  OFALL-SANDY-BAY-SHORT   0.00      0.00      0.00       0.000
  SELF-PT-STP-INLET    100.00     64.78     92.87       9.579
  -----------------------------------------------------------
  System                66.67    153.63    264.37      22.103
  
  
  ********************
  Link Flow Summary
  ********************
  
  -----------------------------------------------------------------------------
                                 Maximum  Time of Max   Maximum    Max/    Max/
                                  |Flow|   Occurrence   |Veloc|    Full    Full
  Link                 Type          LPS  days hr:min     m/sec    Flow   Depth
  -----------------------------------------------------------------------------
  87772                CONDUIT    206.51     0  09:24      0.85    0.21    1.00
  87783                CONDUIT    265.59     0  10:02      2.20   29.29    1.00
  87783_2              CONDUIT    271.24     0  10:02      2.25    1.81    1.00
  87784                CONDUIT    203.22     0  09:06      1.37    0.07    0.59
  87794                CONDUIT    269.84     0  10:02      2.24    1.91    1.00
  87795                CONDUIT    270.58     0  10:02      2.24    1.92    1.00
  87796                CONDUIT    271.01     0  10:02      2.25    0.66    1.00
  87797                CONDUIT    271.21     0  10:02      2.25    0.74    1.00
  87798                CONDUIT    268.89     0  08:43      2.23    0.83    1.00
  87799                CONDUIT    267.62     0  09:52      2.22    1.21    1.00
  87800                CONDUIT    269.73     0  08:55      2.23    1.04    1.00
  87801                CONDUIT    270.43     0  08:55      2.24    7.51    1.00
  87802                CONDUIT    270.94     0  08:55      2.24    0.90    1.00
  87803                CONDUIT    271.88     0  10:02      2.25    0.59    1.00
  87804                CONDUIT    272.41     0  10:02      2.26    0.59    1.00
  87805                CONDUIT    272.82     0  10:02      2.26    0.59    1.00
  87806                CONDUIT    203.35     0  09:43      0.84    0.15    1.00
  87806-3              CONDUIT    204.13     0  09:24      0.84    0.06    1.00
  87806-4              CONDUIT    203.57     0  09:43      0.84    0.12    1.00
  87807                CONDUIT    204.53     0  09:24      0.85    0.09    1.00
  87808                CONDUIT    204.89     0  09:24      0.85    0.12    1.00
  87809                CONDUIT    205.02     0  09:24      0.85    0.12    1.00
  87810                CONDUIT    205.58     0  09:24      0.85    0.16    1.00
  87811                CONDUIT    205.26     0  09:24      0.85    0.14    1.00
  87812                CONDUIT    205.76     0  09:24      0.85    0.40    1.00
  87813                CONDUIT    205.97     0  09:24      0.85    0.41    1.00
  87814                CONDUIT    206.10     0  09:24      0.85    0.13    1.00
  87815                CONDUIT    206.20     0  09:24      0.85    0.25    1.00
  87816                CONDUIT    206.34     0  09:24      0.85    0.19    1.00
  87817                CONDUIT    206.63     0  09:24      0.85    0.21    1.00
  87818                CONDUIT    206.69     0  09:24      0.85    0.15    1.00
  87819                CONDUIT    206.73     0  09:24      0.85    0.19    1.00
  87820                CONDUIT    206.75     0  09:24      0.85    0.15    1.00
  87821                CONDUIT    206.77     0  09:24      1.23    0.07    0.66
  87822                CONDUIT    184.75     0  09:48      3.68    0.23    0.32
  87823                CONDUIT    178.08     0  09:58      5.37    0.13    0.24
  87824                CONDUIT    176.39     0  09:58      5.31    0.08    0.60
  87825                CONDUIT    176.41     0  09:58      0.96    0.09    1.00
  87826                CONDUIT    176.45     0  09:58      0.96    0.13    1.00
  87827                CONDUIT    176.48     0  09:58      0.96    0.91    1.00
  87828                CONDUIT    176.66     0  09:58      0.96    0.69    1.00
  87829                CONDUIT    176.71     0  09:58      0.96    0.99    1.00
  87830                CONDUIT    176.52     0  09:58      0.96    0.91    1.00
  87831                CONDUIT    176.59     0  09:58      0.96    0.96    1.00
  87832                CONDUIT    176.77     0  09:58      0.96    0.57    1.00
  87833                CONDUIT    176.82     0  09:58      0.97    0.20    1.00
  87834                CONDUIT    176.85     0  09:58      0.97    0.21    1.00
  87835                CONDUIT    176.90     0  09:58      0.97    0.21    1.00
  87836                CONDUIT    176.95     0  09:58      0.97    0.10    1.00
  87836-2              CONDUIT    177.00     0  09:58      0.97    0.14    1.00
  87837                CONDUIT    177.04     0  09:58      0.97    0.21    1.00
  87838                CONDUIT    177.08     0  09:58      0.97    0.43    1.00
  87839                CONDUIT    177.12     0  09:58      0.97    0.18    1.00
  87840                CONDUIT    177.14     0  09:58      0.97    0.77    1.00
  87841                CONDUIT    177.17     0  09:58      0.97    1.51    1.00
  87842                CONDUIT    177.18     0  09:58      0.97    0.29    1.00
  87843                CONDUIT    177.20     0  09:58      0.97    0.78    1.00
  87844                CONDUIT    177.21     0  09:58      0.97    0.37    1.00
  87845                CONDUIT    177.22     0  09:58      0.97    0.70    1.00
  87846                CONDUIT    177.23     0  09:58      0.97    1.03    1.00
  87847                CONDUIT    177.25     0  09:58      0.97    0.61    1.00
  87848                CONDUIT    177.26     0  09:58      0.97    0.29    1.00
  87849                CONDUIT    177.26     0  09:58      0.97    0.32    1.00
  87849-2              CONDUIT    173.56     0  09:21      1.50    0.11    0.62
  87849-3              CONDUIT    177.26     0  09:58      1.56    0.17    0.60
  87850                CONDUIT    268.00     0  08:37      2.22    1.90    1.00
  87850-2              CONDUIT    267.21     0  09:52      2.21    0.95    1.00
  87850-3              CONDUIT    267.20     0  09:14      2.21    0.37    1.00
  87852                CONDUIT    271.37     0  10:02      2.25    1.37    1.00
  8787493-3            CONDUIT    174.26     0  09:21      6.20    0.08    0.21
  88084                CONDUIT     33.25     0  10:06      0.52    0.09    0.20
  88794                CONDUIT      0.09     0  08:03      0.09    0.00    0.08
  88795                CONDUIT     42.84     0  10:19      1.25    0.11    0.23
  88796                CONDUIT     21.42     0  10:14      0.78    0.06    0.20
  88797                CONDUIT     21.42     0  10:14      1.01    0.06    0.16
  88798                CONDUIT     42.84     0  10:18      1.26    0.12    0.23
  88799                CONDUIT     42.84     0  10:17      1.22    0.12    0.23
  88800                CONDUIT     21.42     0  10:10      1.01    0.06    0.16
  88801                CONDUIT     21.42     0  10:11      1.01    0.06    0.16
  89358                CONDUIT     21.43     0  10:03      1.03    0.06    0.16
  91183                CONDUIT      4.44     0  10:02      0.95    0.22    0.32
  91184                CONDUIT      0.00     0  00:00      0.00    0.00    0.16
  91351                CONDUIT     33.25     0  09:33      0.51    0.35    0.30
  91352                CONDUIT     33.25     0  09:35      0.55    0.17    0.29
  91353                CONDUIT     33.25     0  09:34      0.56    0.17    0.28
  91354                CONDUIT     33.25     0  09:34      0.57    0.17    0.28
  91356                CONDUIT     33.25     0  09:33      0.56    0.12    0.28
  91357                CONDUIT     33.25     0  09:24      0.64    0.16    0.26
  91358                CONDUIT     33.26     0  09:23      0.59    0.16    0.27
  91440                CONDUIT      4.44     0  10:03      1.05    0.06    0.16
  91441                CONDUIT      4.44     0  10:03      1.08    0.02    0.15
  91441-2              CONDUIT      4.44     0  10:03      1.02    0.04    0.16
  91463                CONDUIT      0.00     0  00:00      0.00    0.00    0.00
  91464                CONDUIT      0.00     0  00:00      0.00    0.00    0.00
  91465                CONDUIT      0.00     0  00:00      0.00    0.00    0.00
  91466                CONDUIT     33.28     0  09:18      0.57    0.24    0.33
  91467                CONDUIT      0.13     0  09:04      0.06    0.00    0.04
  91468                CONDUIT      0.00     0  00:00      0.00    0.00    0.02
  91469                CONDUIT      0.00     0  00:00      0.00    0.00    0.00
  91470                CONDUIT     33.27     0  09:20      0.59    0.24    0.33
  92325                CONDUIT      0.00     0  00:00      0.00    0.00    0.50
  92325-2              CONDUIT    174.04     0  09:40      0.80    0.19    1.00
  92330-2              CONDUIT    173.63     0  09:21      1.03    1.41    1.00
  92332                CONDUIT      0.00     0  00:00      0.00    0.00    0.00
  92333                CONDUIT      0.00     0  00:00      0.00    0.00    0.00
  92346                CONDUIT      0.00     0  00:00      0.00    0.00    0.00
  92347                CONDUIT     13.53     0  09:40      1.45    0.36    0.54
  92348                CONDUIT     13.53     0  09:40      1.62    0.36    0.54
  92430                CONDUIT      1.23     0  09:03      0.91    0.02    0.21
  92431                CONDUIT     13.53     0  09:40      2.73    0.24    0.33
  92436                CONDUIT      9.63     0  09:18      0.31    0.02    0.09
  92437                CONDUIT      9.63     0  09:28      0.31    0.02    0.09
  92438                CONDUIT      9.63     0  09:31      0.33    0.02    0.09
  92439                CONDUIT      9.63     0  10:00      0.31    0.02    0.09
  92440                CONDUIT      9.63     0  09:24      0.31    0.02    0.09
  92522                CONDUIT     46.47     0  10:14      0.60    5.65    1.00
  92528                CONDUIT     33.25     0  09:52      0.66    0.17    0.25
  92530                CONDUIT      0.60     0  08:00      0.03    0.00    0.09
  92531                CONDUIT     33.36     0  10:17      0.57    0.05    0.15
  92532                CONDUIT     33.25     0  09:56      0.51    0.05    0.16
  92533                CONDUIT      9.63     0  09:10      0.32    0.02    0.09
  95054                CONDUIT     92.91     0  10:33      0.69    0.15    1.00
  95139                CONDUIT      0.00     0  00:00      0.00    0.00    0.50
  95140                CONDUIT     92.98     0  10:26      2.45    0.18    0.32
  95141                CONDUIT     92.96     0  10:27      3.18    0.18    0.27
  95142                CONDUIT     92.96     0  10:27      1.78    0.34    0.41
  95143                CONDUIT     92.95     0  10:29      1.78    0.34    0.41
  95144                CONDUIT     92.89     0  10:33      0.99    0.12    0.66
  95145                CONDUIT     92.88     0  10:33      2.53    0.21    0.32
  95146                CONDUIT     92.88     0  10:34      2.54    0.21    0.32
  95149                CONDUIT     93.00     0  10:23      1.04    0.14    0.63
  9517-3               CONDUIT      0.00     0  00:00      0.00    0.00    0.00
  95172                CONDUIT      0.00     0  00:00      0.00    0.00    0.50
  95172-2              CONDUIT      0.00     0  00:00      0.00    0.00    0.00
  95176                CONDUIT     33.25     0  09:51      0.56    0.17    0.28
  95207                CONDUIT     33.25     0  09:43      0.57    0.17    0.28
  95208                CONDUIT     33.25     0  09:48      0.57    0.17    0.28
  95247                CONDUIT     92.89     0  10:32      3.20    0.15    0.27
  95248                CONDUIT     92.89     0  10:33      1.03    0.15    0.63
  95249                CONDUIT     92.89     0  10:33      0.69    0.15    1.00
  95268                CONDUIT     92.96     0  10:27      2.76    0.07    0.30
  95305                CONDUIT     92.92     0  10:30      1.60    0.34    0.45
  95306                CONDUIT     92.89     0  10:31      2.02    0.34    0.37
  95307                CONDUIT     92.89     0  10:32      3.20    0.15    0.27
  95308                CONDUIT     93.01     0  10:23      0.60    0.12    1.00
  95308-2              CONDUIT     93.01     0  10:23      0.60    0.09    1.00
  95341                CONDUIT     92.99     0  10:24      2.81    0.18    0.29
  95342                CONDUIT     92.99     0  10:25      2.81    0.18    0.29
  95356                CONDUIT     33.28     0  10:18      0.57    0.09    0.19
  95357                CONDUIT     33.25     0  10:16      0.53    0.09    0.20
  95358                CONDUIT     33.25     0  10:07      0.52    0.09    0.21
  95904                CONDUIT     21.42     0  10:09      1.03    0.05    0.16
  96200                CONDUIT     93.01     0  10:22      1.32   21.41    1.00
  96200_2              CONDUIT    101.02     0  22:34      0.65    0.24    1.00
  96286                CONDUIT     33.25     0  09:50      0.57    0.17    0.28
  96287                CONDUIT     33.25     0  10:02      0.51    0.05    0.16
  96557                CONDUIT     93.01     0  10:22      0.60    0.15    1.00
  96558                CONDUIT     93.01     0  10:23      0.60    0.22    1.00
  96559                CONDUIT     93.01     0  10:23      0.60    0.21    1.00
  96560                CONDUIT     93.01     0  10:23      0.60    0.19    1.00
  96968                CONDUIT      0.00     0  00:00      0.00    0.00    0.00
  96968-2              CONDUIT      4.44     0  10:03      0.96    0.00    0.05
  97029                CONDUIT     33.25     0  09:37      0.55    0.19    0.29
  97030                CONDUIT     33.25     0  09:46      0.57    0.17    0.28
  97110                CONDUIT      4.44     0  10:01      0.97    0.22    0.32
  97121                CONDUIT      0.00     0  00:00      0.00    0.00    0.00
  97122                CONDUIT      0.00     0  00:00      0.00    0.00    0.00
  97123                CONDUIT      0.00     0  00:00      0.00    0.00    0.00
  97136                CONDUIT      1.12     0  08:03      0.06    0.01    0.19
  97137                CONDUIT     33.46     0  09:08      0.61    0.22    0.32
[...]
  97164                   1.00   0.00  0.00  0.00  1.00  0.00  0.00  0.00  0.00  0.00
  97164-2                 1.00   0.00  0.00  0.00  0.00  1.00  0.00  0.00  1.00  0.00
  97164-3                 2.62   0.00  0.00  0.00  0.16  0.84  0.00  0.00  0.88  0.00
  97165                   1.00   0.00  0.00  0.00  0.98  0.02  0.00  0.00  0.00  0.00
  97165-2                 2.62   0.00  0.00  0.00  0.00  0.00  0.00  1.00  0.00  0.00
  97166                   1.00   0.00  0.00  0.00  1.00  0.00  0.00  0.00  0.00  0.00
  97167                   1.00   0.00  0.00  0.00  0.00  1.00  0.00  0.00  0.00  0.00
  97167-2                 6.72   0.00  0.00  0.00  0.12  0.88  0.00  0.00  1.00  0.00
  97168                   1.00   0.00  0.00  0.00  1.00  0.00  0.00  0.00  0.00  0.00
  97169                   1.00   0.00  0.00  0.00  1.00  0.00  0.00  0.00  0.00  0.00
  97175                   1.00   0.00  0.00  0.00  1.00  0.00  0.00  0.00  0.99  0.00
  97176                   1.00   0.00  0.00  0.00  1.00  0.00  0.00  0.00  0.00  0.00
  97177                   1.00   0.00  0.00  0.00  1.00  0.00  0.00  0.00  0.00  0.00
  97177-97178             1.00   0.00  0.00  0.00  1.00  0.00  0.00  0.00  0.00  0.00
  97178                   1.00   0.00  0.00  0.00  1.00  0.00  0.00  0.00  0.00  0.00
  97179                   1.00   0.00  0.00  0.00  1.00  0.00  0.00  0.00  0.00  0.00
  97180                   1.00   0.00  0.00  0.00  1.00  0.00  0.00  0.00  0.00  0.00
  97183                   1.00   0.00  0.00  0.00  1.00  0.00  0.00  0.00  0.00  0.00
  97196                   1.00   0.00  0.00  0.00  0.00  1.00  0.00  0.00  0.11  0.00
  97197                   1.00   0.00  0.00  0.00  0.00  1.00  0.00  0.00  0.12  0.00
  97198                   1.00   0.00  0.00  0.00  0.00  1.00  0.00  0.00  0.15  0.00
  97274                   1.00   0.00  0.00  0.00  1.00  0.00  0.00  0.00  0.00  0.00
  97275                   1.00   0.00  0.00  0.00  1.00  0.00  0.00  0.00  0.00  0.00
  97276                   1.00   0.00  0.00  0.00  1.00  0.00  0.00  0.00  0.00  0.00
  97277                   1.00   0.00  0.00  0.00  1.00  0.00  0.00  0.00  0.00  0.00
  97279                   1.00   0.00  0.00  0.00  1.00  0.00  0.00  0.00  0.00  0.00
  97280                   1.00   0.00  0.00  0.00  1.00  0.00  0.00  0.00  0.00  0.00
  97281                   1.00   0.00  0.00  0.00  1.00  0.00  0.00  0.00  0.00  0.00
  97321                   1.00   0.00  0.00  0.00  1.00  0.00  0.00  0.00  0.00  0.00
  97322                   1.00   0.00  0.00  0.00  1.00  0.00  0.00  0.00  0.00  0.00
  97323                   1.00   0.00  0.00  0.00  1.00  0.00  0.00  0.00  0.00  0.00
  97324                   1.00   0.00  0.00  0.00  1.00  0.00  0.00  0.00  0.00  0.00
  97325                   1.00   0.00  0.00  0.00  1.00  0.00  0.00  0.00  1.00  0.00
  97327                   1.00   1.00  0.00  0.00  0.00  0.00  0.00  0.00  0.00  0.00
  97328                   1.00   0.00  0.00  0.00  1.00  0.00  0.00  0.00  0.00  0.00
  97328-2                 1.00   0.00  0.00  0.00  0.00  0.00  0.00  1.00  0.00  0.00
  97331                   1.00   0.00  0.00  0.00  1.00  0.00  0.00  0.00  0.00  0.00
  97332                   1.00   0.00  0.00  0.00  1.00  0.00  0.00  0.00  0.00  0.00
  97334                   3.49   1.00  0.00  0.00  0.00  0.00  0.00  0.00  0.00  0.00
  97335                   3.70   1.00  0.00  0.00  0.00  0.00  0.00  0.00  0.00  0.00
  97336                   3.09   1.00  0.00  0.00  0.00  0.00  0.00  0.00  0.00  0.00
  97347                   1.00   0.00  0.00  0.00  1.00  0.00  0.00  0.00  0.27  0.00
  97388                   1.00   0.00  0.00  0.00  1.00  0.00  0.00  0.00  0.79  0.00
  97389                   1.00   0.00  0.00  0.00  1.00  0.00  0.00  0.00  0.81  0.00
  97390                   1.00   0.00  0.00  0.00  1.00  0.00  0.00  0.00  0.75  0.00
  97424                   1.00   0.00  0.00  0.00  1.00  0.00  0.00  0.00  0.00  0.00
  97425                   1.00   0.00  0.00  0.00  1.00  0.00  0.00  0.00  0.00  0.00
  97426                   1.00   0.00  0.00  0.00  1.00  0.00  0.00  0.00  0.00  0.00
  97430                   1.00   0.00  0.00  0.00  1.00  0.00  0.00  0.00  0.00  0.00
  97430-2                 1.00   0.00  0.00  0.00  1.00  0.00  0.00  0.00  0.01  0.00
  97430-3                 1.24   0.00  0.00  0.00  0.00  1.00  0.00  0.00  0.00  0.00
  97431                   1.00   0.00  0.00  0.00  1.00  0.00  0.00  0.00  0.00  0.00
  97431-2                 6.95   0.00  0.00  0.00  1.00  0.00  0.00  0.00  0.00  0.00
  97432                   1.00   0.00  0.00  0.00  1.00  0.00  0.00  0.00  0.00  0.00
  97436                   1.00   0.00  0.00  0.00  1.00  0.00  0.00  0.00  0.00  0.00
  97710                   1.00   0.00  0.00  0.00  1.00  0.00  0.00  0.00  1.00  0.00
  97717                   1.00   0.00  0.00  0.00  1.00  0.00  0.00  0.00  0.80  0.00
  97728                   1.00   0.00  0.00  0.00  1.00  0.00  0.00  0.00  0.83  0.00
  97732                   1.00   0.00  0.00  0.00  1.00  0.00  0.00  0.00  0.00  0.00
  97733                   1.00   0.00  0.00  0.00  1.00  0.00  0.00  0.00  0.00  0.00
  97734                   1.00   0.00  0.00  0.00  1.00  0.00  0.00  0.00  0.00  0.00
  97735                   1.00   0.00  0.00  0.00  1.00  0.00  0.00  0.00  0.00  0.00
  97736                   1.00   0.00  0.00  0.00  1.00  0.00  0.00  0.00  0.00  0.00
  97737                   1.00   0.00  0.00  0.00  1.00  0.00  0.00  0.00  0.00  0.00
  98855                   1.00   0.00  0.00  0.00  1.00  0.00  0.00  0.00  0.00  0.00
  98856                   1.00   0.00  0.00  0.00  0.00  1.00  0.00  0.00  0.43  0.00
  98857                   1.00   0.00  0.00  0.00  1.00  0.00  0.00  0.00  0.00  0.00
  99207                   1.00   0.00  0.00  0.00  1.00  0.00  0.00  0.00  0.00  0.00
  99208                   1.00   0.00  0.00  0.00  1.00  0.00  0.00  0.00  0.00  0.00
  99210                   1.00   0.00  0.00  0.00  1.00  0.00  0.00  0.00  1.00  0.00
  99211                   1.00   0.00  0.00  0.00  1.00  0.00  0.00  0.00  0.00  0.00
  99498                   1.00   0.00  0.00  0.00  1.00  0.00  0.00  0.00  0.00  0.00
  99498-2                 7.39   0.00  0.00  0.00  0.00  0.00  1.00  0.00  0.00  0.00
  OUTFALL-PIPE-2          1.00   1.00  0.00  0.00  0.00  0.00  0.00  0.00  0.00  0.00
  RM-100-01               1.00   0.00  0.00  0.00  1.00  0.00  0.00  0.00  0.00  0.00
  RM-100-02               1.00   0.00  0.00  0.00  0.45  0.55  0.00  0.00  0.00  0.00
  RM-100-03               1.00   0.00  0.00  0.00  0.00  1.00  0.00  0.00  0.00  0.00
  RM-100-04               1.00   0.00  0.00  0.00  0.00  1.00  0.00  0.00  1.00  0.00
  SELFS-PT-DUMMY-EFFLUENT-MAIN    1.00   0.00  0.00  0.00  1.00  0.00  0.00  0.00  0.00  0.00
  
  
  *************************
  Conduit Surcharge Summary
  *************************
  
  ----------------------------------------------------------------------------
                                                           Hours        Hours 
                         --------- Hours Full --------   Above Full   Capacity
  Conduit                Both Ends  Upstream  Dnstream   Normal Flow   Limited
  ----------------------------------------------------------------------------
  87772                      23.00     23.00     23.00      0.01         0.01
  87783                      19.08     19.11     21.50     18.85        15.72
  87783_2                    21.44     22.89     21.50      2.30         5.22
  87784                       0.01      0.01     23.00      0.01         0.01
  87794                      22.38     22.47     22.87      3.74         4.63
  87795                      21.68     22.87     21.77      3.74         4.20
  87796                      21.77     21.77     23.00      0.01         0.03
  87797                      22.99     22.99     23.00      0.01         0.15
  87798                      21.18     21.19     22.99      0.01         0.53
  87799                      22.32     22.99     22.33      0.30         1.87
  87800                      20.12     20.87     21.19      0.16         0.93
  87801                      20.87     23.00     20.87     18.67         4.61
  87802                      22.98     22.98     23.00      0.01         0.06
  87803                      22.98     22.98     23.00      0.01         0.04
  87804                      23.00     23.00     23.00      0.01         0.05
  87805                      23.00     23.00     23.00      0.01         0.11
  87806                      23.00     23.00     23.00      0.01         0.01
  87806-3                    23.00     23.00     23.00      0.01         0.01
  87806-4                    23.00     23.00     23.00      0.01         0.01
  87807                      23.00     23.00     23.00      0.01         0.01
  87808                      23.00     23.00     23.00      0.01         0.01
  87809                      23.00     23.00     23.00      0.01         0.01
  87810                      23.00     23.00     23.00      0.01         0.01
  87811                      23.00     23.00     23.00      0.01         0.01
  87812                      23.00     23.00     23.00      0.01         0.01
  87813                      23.00     23.00     23.00      0.01         0.01
  87814                      23.00     23.00     23.00      0.01         0.01
  87815                      23.00     23.00     23.00      0.01         0.01
  87816                      23.00     23.00     23.00      0.01         0.01
  87817                      23.00     23.00     23.00      0.01         0.01
  87818                      23.00     23.00     23.00      0.01         0.01
  87819                      23.00     23.00     23.00      0.01         0.01
  87820                      23.00     23.00     23.00      0.01         0.01
  87821                       0.01      0.01     23.00      0.01         0.01
  87824                       0.01      0.01      8.07      0.01         0.01
  87825                       8.07      8.07     23.00      0.01         0.01
  87826                      23.00     23.00     23.00      0.01         0.01
  87827                      23.00     23.00     23.00      0.01         0.56
  87828                      23.00     23.00     23.00      0.01         0.01
  87829                      23.00     23.00     23.00      0.01         0.01
  87830                      23.00     23.00     23.00      0.01         0.58
  87831                      23.00     23.00     23.00      0.01         0.01
  87832                      23.00     23.00     23.00      0.01         0.01
  87833                      23.00     23.00     23.00      0.01         0.01
  87834                      23.00     23.00     23.00      0.01         0.01
  87835                      23.00     23.00     23.00      0.01         0.01
  87836                      23.00     23.00     23.00      0.01         0.01
  87836-2                    23.00     23.00     23.00      0.01         0.01
  87837                      23.00     23.00     23.00      0.01         0.01
  87838                      23.00     23.00     23.00      0.01         0.01
  87839                      23.00     23.00     23.00      0.01         0.01
  87840                      23.00     23.00     23.00      0.01         0.01
  87841                      23.00     23.00     23.00      4.73         6.56
  87842                      23.00     23.00     23.00      0.01         0.01
  87843                      23.00     23.00     23.00      0.01         0.01
  87844                      23.00     23.00     23.00      0.01         0.01
  87845                      23.00     23.00     23.00      0.01         0.01
  87846                      23.00     23.00     23.00      0.21         0.96
  87847                      23.00     23.00     23.00      0.01         0.01
  87848                      23.00     23.00     23.00      0.01         0.01
  87849                      23.00     23.00     23.00      0.01         0.01
  87849-2                     0.01      0.01     15.08      0.01         0.01
  87849-3                     0.01      0.01     23.00      0.01         0.01
  87850                      18.57     18.68     22.47      3.70         4.01
  87850-2                    19.10     22.33     19.43      0.01         2.97
  87850-3                    17.37     19.43     18.68      0.01         0.12
  87852                      22.88     22.99     22.89      0.32         7.39
  92325                       0.01      0.01     15.94      0.01         0.01
  92325-2                    15.94     15.94     23.00      0.01         0.01
  92330-2                    15.23     15.23     15.23      4.15         7.18
  92522                      23.00     23.00     23.00     23.00        20.37
  95054                      23.00     23.00     23.00      0.01         0.01
  95144                       0.01      0.01     23.00      0.01         0.01
  95149                       0.01      0.01     23.00      0.01         0.01
  95248                       0.01      0.01     23.00      0.01         0.01
  95249                      23.00     23.00     23.00      0.01         0.01
  95308                      23.00     23.00     23.00      0.01         0.01
  95308-2                    23.00     23.00     23.00      0.01         0.01
  96200                      23.00     23.00     23.00     22.97        19.99
  96200_2                    23.00     23.00     23.00      0.01         2.88
  96557                      23.00     23.00     23.00      0.01         0.01
  96558                      23.00     23.00     23.00      0.01         0.01
  96559                      23.00     23.00     23.00      0.01         0.01
  96560                      23.00     23.00     23.00      0.01         0.01
  97160                       0.01      0.01      8.80      0.01         0.01
  97161                       0.01      0.01      8.80     11.94         0.01
  97162                       0.01      0.01     23.00      0.01         0.01
  97163                      23.00     23.00     23.00      0.01         0.01
  97164                       0.01      0.01     23.00      0.01         0.01
  97165                      21.95     21.95     22.99      7.00         0.01
  97166                      23.00     23.00     23.00      0.01         8.90
  97168                      23.00     23.00     23.00      0.01         4.71
  97169                      23.00     23.00     23.00      0.01         8.89
  97175                       0.01      0.01     23.00      0.01         0.01
  97176                      23.00     23.00     23.00      0.01         0.01
  97177                      23.00     23.00     23.00      0.01         0.01
  97177-97178                23.00     23.00     23.00      0.01         0.33
  97178                      23.00     23.00     23.00      0.01         4.27
  97179                      23.00     23.00     23.00      0.01         0.01
  97180                      23.00     23.00     23.00      0.01         0.01
  97183                      23.00     23.00     23.00      0.01         0.01
  97274                      23.00     23.00     23.00      0.01         0.01
  97275                      23.00     23.00     23.00      0.01         0.01
  97276                      23.00     23.00     23.00      0.01         0.01
  97277                      23.00     23.00     23.00      0.01         4.90
  97279                       0.01      0.01     23.00      0.01         0.01
  97280                      23.00     23.00     23.00      0.01         0.01
  97281                      23.00     23.00     23.00      0.01         0.01
  97321                      23.00     23.00     23.00      0.01         0.01
  97322                      23.00     23.00     23.00      0.01         0.01
  97323                      23.00     23.00     23.00      0.01         0.01
  97324                      23.00     23.00     23.00      0.01         0.01
  97331                      23.00     23.00     23.00      0.01         0.01
  97332                      23.00     23.00     23.00      0.01         0.01
  97424                      23.00     23.00     23.00      0.01         0.01
  97425                      23.00     23.00     23.00      0.01         0.01
  97426                      23.00     23.00     23.00      0.01         0.01
  97430                       0.87      0.87     23.00      0.01         0.01
  97430-2                     0.74      0.87      0.74     22.46         0.54
  97430-3                     0.01      0.74      0.01     23.00         0.01
  97431                      23.00     23.00     23.00      0.01         0.01
  97431-2                    23.00     23.00     23.00      0.01         0.01
  97432                      23.00     23.00     23.00      0.01         0.01
  97436                      23.00     23.00     23.00      0.01         0.01
  97732                      23.00     23.00     23.00      0.01         0.01
  97733                      23.00     23.00     23.00      0.01         0.01
  97734                      23.00     23.00     23.00      2.79         0.02
  97735                      23.00     23.00     23.00      0.01         0.01
  97736                      23.00     23.00     23.00      0.64         0.01
  97737                       0.01      0.01     23.00      0.01         0.01
  98855                       0.01      0.01     23.00      0.01         0.01
  98857                       0.01      0.01     23.00      0.01         0.01
  99207                      23.00     23.00     23.00      0.01         0.01
  99208                       0.01      0.01     23.00      0.01         0.01
  99210                       0.01      0.01     23.00      0.01         0.01
  99211                       0.01      0.01     23.00      0.59         0.01
  RM-100-01                  17.84     17.84     23.00     12.81        12.75
  RM-100-02                   0.01      0.01     23.00      0.01         0.01
  SELFS-PT-DUMMY-EFFLUENT-MAIN       23.00     23.00     23.00      0.01         0.01
  
  
  ***************
  Pumping Summary
  ***************
  
  ---------------------------------------------------------------------------------------------------------
                                                  Min       Avg       Max     Total     Power    % Time Off
                        Percent   Number of      Flow      Flow      Flow    Volume     Usage    Pump Curve
  Pump                 Utilized   Start-Ups       LPS       LPS       LPS  10^6 ltr     Kw-hr    Low   High
  ---------------------------------------------------------------------------------------------------------
  BB-PS-1                 55.41         196      0.00     11.80     12.34     0.540     26.68    0.0    0.0
  BB-PS-2                  0.00           0      0.00      0.00      0.00     0.000      0.00    0.0    0.0
  BB-PS-3                  0.00           0      0.00      0.00      0.00     0.000      0.00    0.0    0.0
  SB-PS1-1                58.32        6179      0.00     19.60     23.91     0.930     26.08    0.0    0.0
  SB-PS1-2                41.68        6180      0.00     36.38     46.47     1.240     37.19    0.0    0.0
  SB-PS2-1                 0.00           0      0.00      0.00      0.00     0.000      0.00    0.0    0.0
  SB-PS2-2                86.90       15320      0.00     73.93     93.01     5.268    528.04    0.0    0.0
  SELFS-PT-EFFLUENT-PS-1    73.17         876      0.00    129.90    130.00     7.871   1228.41    0.0   99.4
  SELFS-PT-EFFLUENT-PS-2     1.43          27      0.00    126.72    130.00     0.149     39.70    0.0   74.5
  SELFS-PT-EFFLUENT-PS-3     0.00           0      0.00      0.00      0.00     0.000      0.00    0.0    0.0
  

  Analysis begun on:  Fri Mar  6 14:38:28 2026
  Analysis ended on:  Fri Mar  6 14:39:28 2026
  Total elapsed time: 00:01:00