
  EPA STORM WATER MANAGEMENT MODEL - VERSION 5.2 (Build 5.2.4)
  ------------------------------------------------------------

  Scenario: Lower Northern Allegheny Production H&H Model 
  Company: Camp Dresser & McKee Inc. 
  Client: Allegheny County Sanitary Authority 
  
  ERROR 337: cannot open climate file C:\Alcosan\LNA\Climate\Climate_Apr2000_Dec2007.dat.

  Analysis begun on:  Fri Mar  6 14:40:20 2026
  Analysis ended on:  Fri Mar  6 14:40:20 2026
  Total elapsed time: < 1 sec