
  EPA STORM WATER MANAGEMENT MODEL - VERSION 5.2 (Build 5.2.4)
  ------------------------------------------------------------

  Scenario Run :  BASE 
  WARNING 04: minimum elevation drop used for Conduit 11
  WARNING 04: minimum elevation drop used for Conduit 7
  
  *************
  Element Count
  *************
  Number of rain gages ...... 0
  Number of subcatchments ... 0
  Number of nodes ........... 21
  Number of links ........... 20
  Number of pollutants ...... 0
  Number of land uses ....... 0
  
  
  ************
  Node Summary
  ************
                                           Invert      Max.    Ponded    External
  Name                 Type                 Elev.     Depth      Area    Inflow  
  -------------------------------------------------------------------------------
  A                    JUNCTION            284.65     10.00     100.0    Yes
  B                    JUNCTION            285.07     10.00     100.0    Yes
  C                    JUNCTION            285.50     10.00     100.0    Yes
  D                    JUNCTION            285.93     10.00     100.0    Yes
  E                    JUNCTION            286.36     10.00     100.0    Yes
  F                    JUNCTION            287.22     10.00     100.0    Yes
  G                    JUNCTION            287.22     10.00     100.0    Yes
  H                    JUNCTION            287.65     10.00     100.0    Yes
  I                    JUNCTION            288.08     10.00     100.0    Yes
  J                    JUNCTION            288.95     10.00     100.0    Yes
  K                    JUNCTION            288.95     10.00     100.0    Yes
  L                    JUNCTION            289.38     10.00     100.0    Yes
  M                    JUNCTION            289.82     10.00     100.0    Yes
  N                    JUNCTION            290.25     10.00     100.0    Yes
  O                    JUNCTION            290.69     10.00     100.0    Yes
  P                    JUNCTION            291.13     10.00     100.0    Yes
  Q                    JUNCTION            291.56     10.00     100.0    Yes
  R                    JUNCTION            292.00     10.00     100.0    Yes
  S                    JUNCTION            292.44     10.00     100.0    Yes
  T                    JUNCTION            292.44     10.00     100.0    Yes
  OUTFALL              OUTFALL             282.24      2.00       0.0
  
  
  ************
  Link Summary
  ************
  Name             From Node        To Node          Type            Length    %Slope Roughness
  ---------------------------------------------------------------------------------------------
  1                A                OUTFALL          CONDUIT          100.0    2.4010    0.0120
  10               J                I                CONDUIT          100.0    0.8662    0.0120
  11               K                J                CONDUIT          100.0    0.0003    0.0120
  12               L                K                CONDUIT          100.0    0.4341    0.0120
  13               M                L                CONDUIT          100.0    0.4347    0.0120
  14               N                M                CONDUIT          100.0    0.4354    0.0120
  15               O                N                CONDUIT          100.0    0.4360    0.0120
  16               P                O                CONDUIT          100.0    0.4367    0.0120
  17               Q                P                CONDUIT          100.0    0.4374    0.0120
  18               R                Q                CONDUIT          100.0    0.4380    0.0120
  19               S                R                CONDUIT          100.0    0.4387    0.0120
  2                B                A                CONDUIT          100.0    0.4276    0.0120
  3                C                B                CONDUIT          100.0    0.4283    0.0120
  4                D                C                CONDUIT          100.0    0.4289    0.0120
  5                E                D                CONDUIT          100.0    0.4295    0.0120
  6                F                E                CONDUIT          100.0    0.8610    0.0120
  7                G                F                CONDUIT          100.0    0.0003    0.0120
  8                H                G                CONDUIT          100.0    0.4315    0.0120
  9                I                H                CONDUIT          100.0    0.4321    0.0120
  20               T                S                IDEAL PUMP  
  
  
  *********************
  Cross Section Summary
  *********************
                                        Full     Full     Hyd.     Max.   No. of     Full
  Conduit          Shape               Depth     Area     Rad.    Width  Barrels     Flow
  ---------------------------------------------------------------------------------------
  1                CIRCULAR             2.00     3.14     0.50     2.00        1 25556.50
  10               CIRCULAR             2.00     3.14     0.50     2.00        1 15350.60
  11               CIRCULAR             2.00     3.14     0.50     2.00        1   287.95
  12               CIRCULAR             2.00     3.14     0.50     2.00        1 10866.60
  13               CIRCULAR             1.00     0.79     0.25     1.00        1  1712.66
  14               CIRCULAR             1.00     0.79     0.25     1.00        1  1713.95
  15               CIRCULAR             2.00     3.14     0.50     2.00        1 10891.08
  16               CIRCULAR             2.00     3.14     0.50     2.00        1 10899.27
  17               CIRCULAR             2.00     3.14     0.50     2.00        1 10907.45
  18               CIRCULAR             2.00     3.14     0.50     2.00        1 10915.63
  19               CIRCULAR             2.00     3.14     0.50     2.00        1 10923.84
  2                CIRCULAR             2.00     3.14     0.50     2.00        1 10785.33
  3                CIRCULAR             2.00     3.14     0.50     2.00        1 10793.43
  4                CIRCULAR             2.00     3.14     0.50     2.00        1 10801.54
  5                CIRCULAR             2.00     3.14     0.50     2.00        1 10809.64
  6                CIRCULAR             2.00     3.14     0.50     2.00        1 15303.82
  7                CIRCULAR             2.00     3.14     0.50     2.00        1   287.95
  8                CIRCULAR             2.00     3.14     0.50     2.00        1 10834.02
  9                CIRCULAR             2.00     3.14     0.50     2.00        1 10842.15
  
  
  ****************
  Analysis Options
  ****************
  Flow Units ............... LPS
  Process Models:
    Rainfall/Runoff ........ NO
    RDII ................... NO
    Snowmelt ............... NO
    Groundwater ............ NO
    Flow Routing ........... YES
    Ponding Allowed ........ NO
    Water Quality .......... NO
  Flow Routing Method ...... DYNWAVE
  Surcharge Method ......... EXTRAN
  Starting Date ............ 02/18/2013 00:00:00
  Ending Date .............. 02/18/2013 03:00:00
  Antecedent Dry Days ...... 0.0
  Report Time Step ......... 00:00:10
  Routing Time Step ........ 1.00 sec
  Variable Time Step ....... YES
  Maximum Trials ........... 8
  Number of Threads ........ 1
  Head Tolerance ........... 0.000010 m
  
  
  ERROR 351: cannot open routing interface file C:\Users\Robert E Dickinson\Desktop\fileOne.TXT.

  Analysis begun on:  Fri Mar  6 14:40:20 2026
  Analysis ended on:  Fri Mar  6 14:40:20 2026
  Total elapsed time: < 1 sec