
  EPA STORM WATER MANAGEMENT MODEL - VERSION 5.2 (Build 5.2.4)
  ------------------------------------------------------------

  WARNING 04: minimum elevation drop used for Conduit 5A_FORCEMAIN_D
  WARNING 04: minimum elevation drop used for Conduit INTERCONNECT
  WARNING 02: maximum depth increased for Node 5A_DUMMY
  WARNING 02: maximum depth increased for Node DUMMY_FOR_GRAVITY
  WARNING 02: maximum depth increased for Node FM_SPLIT
  
  ****************
  Analysis Options
  ****************
  Flow Units ............... MGD
  Process Models:
    Rainfall/Runoff ........ YES
    RDII ................... YES
    Snowmelt ............... NO
    Groundwater ............ NO
    Flow Routing ........... YES
    Ponding Allowed ........ NO
    Water Quality .......... NO
  Flow Routing Method ...... DYNWAVE
  Surcharge Method ......... EXTRAN
  Starting Date ............ 12/09/2012 00:00:00
  Ending Date .............. 06/30/2013 00:00:00
  Antecedent Dry Days ...... 5.0
  Report Time Step ......... 00:15:00
  Routing Time Step ........ 1.00 sec
  Variable Time Step ....... YES
  Maximum Trials ........... 8
  Number of Threads ........ 1
  Head Tolerance ........... 0.005000 ft
  
  
  **********************           Volume        Volume
  Rainfall Dependent I/I        acre-feet      10^6 gal
  **********************        ---------     ---------
  Sewershed Rainfall ......      1353.506       441.060
  RDII Produced ...........        75.128        24.482
  RDII Ratio ..............         0.056
  
  
  **************************        Volume        Volume
  Flow Routing Continuity        acre-feet      10^6 gal
  **************************     ---------     ---------
  Dry Weather Inflow .......       366.750       119.511
  Wet Weather Inflow .......         0.000         0.000
  Groundwater Inflow .......         0.000         0.000
  RDII Inflow ..............        75.128        24.482
  External Inflow ..........         0.000         0.000
  External Outflow .........       559.562       182.342
  Flooding Loss ............         0.000         0.000
  Evaporation Loss .........         0.000         0.000
  Exfiltration Loss ........         0.000         0.000
  Initial Stored Volume ....         0.000         0.000
  Final Stored Volume ......         0.279         0.091
  Continuity Error (%) .....       -26.696
  
  
  *************************
  Highest Continuity Errors
  *************************
  Node 5A_DUMMY (-39.22%)
  
  
  ***************************
  Time-Step Critical Elements
  ***************************
  Link MC-1-RBW_WETWELL (1.22%)
  
  
  ********************************
  Highest Flow Instability Indexes
  ********************************
  Link 5A_FORCEMAIN_D (19)
  Link INTERCONNECT (17)
  Link 5A_PUMP_1 (3)
  Link 5A_FORCEMAIN_A (2)
  Link MC-1-RBW_WETWELL (2)
  
  
  *********************************
  Most Frequent Nonconverging Nodes
  *********************************
  Node 5A_OUTFALL (35.35%)
  Node WWTP (35.35%)
  Node INTERCONNECT2 (27.46%)
  Node INTERCONNECT1 (27.09%)
  Node RBW_FM_CONNECT (26.73%)
  
  
  *************************
  Routing Time Step Summary
  *************************
  Minimum Time Step           :     0.06 sec
  Average Time Step           :     1.00 sec
  Maximum Time Step           :     1.00 sec
  % of Time in Steady State   :     0.00
  Average Iterations per Step :     5.02
  % of Steps Not Converging   :    35.35
  Time Step Frequencies       :
      1.000 -  0.251 sec      :    99.98 %
      0.251 -  0.063 sec      :     0.02 %
      0.063 -  0.016 sec      :     0.00 %
      0.016 -  0.004 sec      :     0.00 %
      0.004 -  0.001 sec      :     0.00 %
  
  
  ******************
  Node Depth Summary
  ******************
  
  ---------------------------------------------------------------------------------
                                 Average  Maximum  Maximum  Time of Max    Reported
                                   Depth    Depth      HGL   Occurrence   Max Depth
  Node                 Type         Feet     Feet     Feet  days hr:min        Feet
  ---------------------------------------------------------------------------------
  5A_DUMMY             JUNCTION    12.12   154.80   870.52    12  22:23      143.46
  DUMMY_FOR_GRAVITY    JUNCTION     0.22   135.83   870.83   122  22:24       39.49
  FM_SPLIT             JUNCTION     9.25   125.51   839.51   122  22:24       34.84
  FORCEMAIN_RECONNECT  JUNCTION    10.83    30.05   741.76   122  22:59       20.87
  INTERCONNECT1        JUNCTION    10.05    47.10   760.10   128  22:15       32.39
  INTERCONNECT2        JUNCTION    10.05    46.91   759.91   128  22:15       32.34
  K-1A                 JUNCTION     0.34    12.43   857.05   128  21:10        3.98
  K-25.1               JUNCTION     2.23     3.80   843.80   128  21:53        3.77
  K-25.2               JUNCTION     0.12     0.49   844.27   128  21:52        0.49
  MC-1                 JUNCTION     0.32     1.50   706.10   128  22:25        1.48
  MC-2                 JUNCTION     0.08     0.28   711.03   128  22:50        0.28
  MC-3                 JUNCTION     0.09     0.33   711.13   128  21:05        0.33
  MC-4                 JUNCTION     0.06     0.20   711.43   128  22:45        0.20
  N-1                  JUNCTION     0.19     1.01   711.04   128  22:00        1.01
  N-10                 JUNCTION     0.19     0.73   746.73   128  21:57        0.73
  N-11                 JUNCTION     0.16     0.61   763.61   128  21:57        0.61
  N-12                 JUNCTION     0.17     0.62   776.62   128  21:56        0.62
  N-13                 JUNCTION     0.21     0.84   782.84   128  21:55        0.84
  N-13.1               JUNCTION     0.03     0.13   784.13   128  21:26        0.13
  N-13.2               JUNCTION     0.04     0.15   786.15   128  21:25        0.15
  N-14                 JUNCTION     0.18     0.70   786.70   128  21:56        0.70
  N-15                 JUNCTION     0.16     0.61   792.11   128  21:55        0.61
  N-16                 JUNCTION     0.27     1.15   793.65   128  21:55        1.15
  N-17                 JUNCTION     0.16     0.59   804.89   128  21:54        0.58
  N-18                 JUNCTION     0.27     1.19   806.69   128  21:54        1.18
  N-19                 JUNCTION     0.19     0.74   811.74   128  21:53        0.73
  N-2                  JUNCTION     0.32     1.34   711.84   128  22:00        1.34
  N-20                 JUNCTION     0.16     0.62   819.05   128  21:52        0.62
  N-21                 JUNCTION     0.17     0.70   823.20   128  21:52        0.70
  N-22                 JUNCTION     0.29     3.15   826.65   128  21:17        2.18
  N-23                 JUNCTION     0.20     0.81   829.81   128  21:52        0.81
  N-24                 JUNCTION     0.18     0.70   839.70   128  21:51        0.70
  N-25                 JUNCTION     0.19     0.82   842.82   128  21:50        0.81
  N-26                 JUNCTION     0.09     0.34   860.34    19  09:05        0.29
  N-27                 JUNCTION     0.09     0.35   875.35    19  09:05        0.30
  N-28                 JUNCTION     0.15     1.68   877.68    19  09:00        0.60
  N-29                 JUNCTION     0.08     0.32   883.32    19  09:05        0.27
  N-3                  JUNCTION     0.30     1.50   712.60   128  21:59        1.50
  N-30                 JUNCTION     0.12     0.53   886.53    19  09:05        0.42
  N-31                 JUNCTION     0.11     0.43   897.43    19  09:05        0.35
  N-4                  JUNCTION     0.30     1.74   713.54   128  21:59        1.74
  N-5                  JUNCTION     0.14     0.51   726.51   128  21:58        0.51
  N-6                  JUNCTION     0.16     0.60   733.60   128  21:58        0.60
  N-7                  JUNCTION     0.22     0.92   735.92   128  21:58        0.92
  N-8                  JUNCTION     0.18     0.69   739.19   128  21:58        0.69
  N-9                  JUNCTION     0.18     0.70   743.70   128  21:57        0.70
  RBW_DUMMY            JUNCTION     6.11    80.59   780.59   128  21:43       69.70
  RBW_FM_CONNECT       JUNCTION    10.05    47.42   760.42   128  22:15       32.67
  S-1                  JUNCTION     0.06     0.16   793.06   128  21:08        0.16
  S-2                  JUNCTION     0.12     0.34   797.70   128  21:06        0.33
  S-3                  JUNCTION     0.00     0.00   812.10     0  00:00        0.00
  5A_OUTFALL           OUTFALL      0.00     0.00   710.37     0  00:00        0.00
  WWTP                 OUTFALL      0.19     1.00   722.50   122  22:24        0.80
  5A_WETWELL           STORAGE      3.62     4.41   705.74   128  22:01        4.30
  RBW_WETWELL          STORAGE      5.25     8.01   706.09   128  22:05        8.00
  
  
  *******************
  Node Inflow Summary
  *******************
  
  -------------------------------------------------------------------------------------------------
                                  Maximum  Maximum                  Lateral       Total        Flow
                                  Lateral    Total  Time of Max      Inflow      Inflow     Balance
                                   Inflow   Inflow   Occurrence      Volume      Volume       Error
  Node                 Type           MGD      MGD  days hr:min    10^6 gal    10^6 gal     Percent
  -------------------------------------------------------------------------------------------------
  5A_DUMMY             JUNCTION     0.000    4.752     0  17:37           0         101     -28.173
  DUMMY_FOR_GRAVITY    JUNCTION     0.000    5.429   128  21:09           0         174       0.009
  FM_SPLIT             JUNCTION     0.000    5.341   128  21:49           0         174       0.034
  FORCEMAIN_RECONNECT  JUNCTION     0.000    7.907   128  22:15           0         182       0.017
  INTERCONNECT1        JUNCTION     0.000    3.795   128  22:15           0        65.1       0.180
  INTERCONNECT2        JUNCTION     0.000    5.140   128  22:15           0         125       0.048
  K-1A                 JUNCTION     3.639    3.639   128  21:50        65.6        65.6       0.001
  K-25.1               JUNCTION     0.000    3.639   128  21:52           0        65.6       0.001
  K-25.2               JUNCTION     0.000    3.642   128  21:50           0        65.6       0.001
  MC-1                 JUNCTION     0.000    0.323   128  22:50           0        8.82       0.001
  MC-2                 JUNCTION     0.000    0.323   128  22:45           0        8.82       0.001
  MC-3                 JUNCTION     0.000    0.323   128  22:45           0        8.82       0.000
  MC-4                 JUNCTION     0.323    0.323   128  22:45        8.82        8.82       0.000
  N-1                  JUNCTION     0.000    4.474   128  22:00           0         102       0.000
  N-10                 JUNCTION     0.000    4.475   128  21:57           0         102       0.001
  N-11                 JUNCTION     0.000    4.475   128  21:56           0         102       0.001
  N-12                 JUNCTION     0.000    4.476   128  21:55           0         102       0.001
  N-13                 JUNCTION     0.000    4.477   128  21:55           0         102       0.001
  N-13.1               JUNCTION     0.000    0.118   128  21:25           0        2.88      -0.000
  N-13.2               JUNCTION     0.118    0.118   128  21:25        2.88        2.88       0.000
  N-14                 JUNCTION     0.000    4.379   128  21:55           0        98.9       0.000
  N-15                 JUNCTION     0.000    4.379   128  21:55           0        98.9       0.000
  N-16                 JUNCTION     0.000    4.379   128  21:54           0        98.9       0.001
  N-17                 JUNCTION     0.000    4.379   128  21:54           0        98.9       0.000
  N-18                 JUNCTION     0.000    4.381   128  21:53           0        98.9       0.001
  N-19                 JUNCTION     0.000    4.383   128  21:52           0        98.9       0.000
  N-2                  JUNCTION     0.000    4.475   128  21:59           0         102       0.001
  N-20                 JUNCTION     0.000    4.384   128  21:52           0        98.9       0.000
  N-21                 JUNCTION     0.000    4.384   128  21:51           0        98.9       0.000
  N-22                 JUNCTION     0.000    4.383   128  21:52           0        98.9       0.001
  N-23                 JUNCTION     0.000    4.387   128  21:51           0        98.9       0.001
  N-24                 JUNCTION     0.000    4.390   128  21:51           0        98.9       0.000
  N-25                 JUNCTION     0.000    4.390   128  21:50           0        98.9       0.001
  N-26                 JUNCTION     0.000    1.226    19  09:05           0        33.3      -0.000
  N-27                 JUNCTION     0.000    1.226    19  09:05           0        33.3      -0.000
  N-28                 JUNCTION     0.000    1.226    19  09:05           0        33.3       0.000
  N-29                 JUNCTION     0.000    1.226    19  09:05           0        33.3       0.000
  N-3                  JUNCTION     0.000    4.475   128  21:59           0         102       0.001
  N-30                 JUNCTION     0.000    1.226    19  09:04           0        33.3       0.001
  N-31                 JUNCTION     1.226    1.226    19  09:00        33.3        33.3      -0.000
  N-4                  JUNCTION     0.000    4.475   128  21:58           0         102       0.000
  N-5                  JUNCTION     0.000    4.475   128  21:58           0         102       0.000
  N-6                  JUNCTION     0.000    4.475   128  21:58           0         102       0.000
  N-7                  JUNCTION     0.000    4.475   128  21:58           0         102       0.000
  N-8                  JUNCTION     0.000    4.475   128  21:57           0         102       0.000
  N-9                  JUNCTION     0.000    4.475   128  21:57           0         102       0.000
  RBW_DUMMY            JUNCTION     0.000    2.304     0  19:25           0        8.79      -0.793
  RBW_FM_CONNECT       JUNCTION     0.000    3.795   128  22:05           0          64       0.063
  S-1                  JUNCTION     0.000    1.129   128  22:05           0        33.4      -0.001
  S-2                  JUNCTION     0.576    0.576   128  21:05        33.4        33.4       0.000
  S-3                  JUNCTION     0.000    0.000     0  00:00           0           0       0.000 gal
  5A_OUTFALL           OUTFALL      0.000    0.000     0  00:00           0           0       0.000 gal
  WWTP                 OUTFALL      0.000    7.912   128  22:15           0         182       0.000
  5A_WETWELL           STORAGE      0.000    4.474   128  22:00           0         102       0.913
  RBW_WETWELL          STORAGE      0.000    1.102   128  22:36           0        8.82       0.302
  
  
  **********************
  Node Surcharge Summary
  **********************
  
  Surcharging occurs when water rises above the top of the highest conduit.
  ---------------------------------------------------------------------
                                               Max. Height   Min. Depth
                                   Hours       Above Crown    Below Rim
  Node                 Type      Surcharged           Feet         Feet
  ---------------------------------------------------------------------
  5A_DUMMY             JUNCTION     1198.06        153.469        0.000
  DUMMY_FOR_GRAVITY    JUNCTION        1.45        134.497        0.000
  FM_SPLIT             JUNCTION     4844.01        124.174        0.000
  FORCEMAIN_RECONNECT  JUNCTION     4852.20         28.713        0.000
  INTERCONNECT1        JUNCTION     4851.43         46.101        0.000
  INTERCONNECT2        JUNCTION     4850.84         45.574        0.000
  K-1A                 JUNCTION        4.30         11.095        3.782
  K-25.1               JUNCTION     4854.89          2.553        4.197
  N-22                 JUNCTION        1.48          1.899        3.671
  N-28                 JUNCTION        0.42          1.011       12.992
  N-3                  JUNCTION        0.04          0.002        6.518
  N-4                  JUNCTION        0.51          0.239       14.611
  RBW_DUMMY            JUNCTION     3828.72         79.922        0.000
  RBW_FM_CONNECT       JUNCTION     4851.35         46.415        0.000
  
  
  *********************
  Node Flooding Summary
  *********************
  
  No nodes were flooded.
  
  
  **********************
  Storage Volume Summary
  **********************
  
  ------------------------------------------------------------------------------------------------
                         Average    Avg   Evap  Exfil     Maximum    Max    Time of Max    Maximum
                          Volume   Pcnt   Pcnt   Pcnt      Volume   Pcnt     Occurrence    Outflow
  Storage Unit          1000 ftł   Full   Loss   Loss    1000 ftł   Full    days hr:min        MGD
  ------------------------------------------------------------------------------------------------
  5A_WETWELL               0.202   17.3    0.0    0.0       0.256   21.9     128  22:01      4.752
  RBW_WETWELL              0.184   28.8    0.0    0.0       0.290   45.5     128  22:05      2.304
  
  
  ***********************
  Outfall Loading Summary
  ***********************
  
  -----------------------------------------------------------
                         Flow       Avg       Max       Total
                         Freq      Flow      Flow      Volume
  Outfall Node           Pcnt       MGD       MGD    10^6 gal
  -----------------------------------------------------------
  5A_OUTFALL             0.00     0.000     0.000       0.000
  WWTP                  87.33     1.032     7.912     182.328
  -----------------------------------------------------------
  System                43.66     1.032     7.912     182.328
  
  
  ********************
  Link Flow Summary
  ********************
  
  -----------------------------------------------------------------------------
                                 Maximum  Time of Max   Maximum    Max/    Max/
                                  |Flow|   Occurrence   |Veloc|    Full    Full
  Link                 Type          MGD  days hr:min    ft/sec    Flow   Depth
  -----------------------------------------------------------------------------
  5A_FORCEMAIN_A       CONDUIT     4.904   122  22:18      8.46    1.09    1.00
  5A_FORCEMAIN_B       CONDUIT     5.341   128  21:49      5.92    0.54    1.00
  5A_FORCEMAIN_C       CONDUIT     1.759   128  21:35      3.47    1.92    1.00
  5A_FORCEMAIN_D       CONDUIT     3.795   128  22:15      7.48   19.41    1.00
  5A_FORCEMAIN_E       CONDUIT     2.606   128  22:15      5.13    3.73    1.00
  5A_FORCEMAIN_PARALLEL_A CONDUIT     3.633   128  21:45      4.03    1.90    1.00
  5A_FORCEMAIN_PARALLEL_B CONDUIT     5.302   128  22:15      5.87    3.61    1.00
  FM_TO_RIVERVIEW      CONDUIT     7.912   128  22:15     15.59    1.08    1.00
  INTERCONNECT         CONDUIT     2.170   128  22:46      4.28   12.03    1.00
  K-1A_K-25.2          CONDUIT     3.642   128  21:50      5.55    1.79    0.68
  K-25.1-N-25          CONDUIT     3.641   128  21:52      5.20    0.57    0.83
  K-25.2-K-25.1        CONDUIT     3.639   128  21:52      6.18    0.32    0.70
  MC-1-RBW_WETWELL     CONDUIT     1.102   128  22:36      3.13    1.02    1.00
  MC-2-MC-1            CONDUIT     0.323   128  22:50      3.09    0.24    0.34
  MC-3-MC-2            CONDUIT     0.323   128  22:45      2.80    0.32    0.37
  MC-4-MC-3            CONDUIT     0.323   128  22:45      3.35    0.13    0.32
  N-10-N-9             CONDUIT     4.475   128  21:57      8.34    0.46    0.48
  N-11-N-10            CONDUIT     4.475   128  21:57      9.07    0.35    0.45
  N-12-N-11            CONDUIT     4.475   128  21:56     10.14    0.35    0.41
  N-13-N-12            CONDUIT     4.476   128  21:55      8.10    0.53    0.49
  N-13.1-N-13          CONDUIT     0.118   128  21:26      1.44    0.08    0.59
  N-13.2-N-13.1        CONDUIT     0.118   128  21:25      3.52    0.10    0.21
  N-14-N-13            CONDUIT     4.379   128  21:56      7.41    0.44    0.51
  N-15-N-14            CONDUIT     4.379   128  21:55      9.17    0.35    0.44
  N-16-N-15            CONDUIT     4.379   128  21:55      6.28    0.75    0.59
  N-17-N-16            CONDUIT     4.379   128  21:54      6.39    0.32    0.58
  N-18-N-17            CONDUIT     4.379   128  21:54      6.23    0.79    0.59
  N-19-N-18            CONDUIT     4.381   128  21:53      5.67    0.48    0.64
  N-2-N-1              CONDUIT     4.474   128  22:00      4.67    1.12    0.78
  N-20-N-19            CONDUIT     4.383   128  21:52      8.76    0.36    0.45
  N-21-N-20            CONDUIT     4.384   128  21:52      9.84    0.49    0.49
  N-22-N-21            CONDUIT     4.384   128  21:51      6.60    1.26    0.78
  N-23-N-22            CONDUIT     4.383   128  21:52      6.27    0.75    0.82
  N-24-N-23            CONDUIT     4.387   128  21:51      8.75    0.61    0.60
  N-25-N-24            CONDUIT     4.390   128  21:51      8.71    0.69    0.61
  N-26-N-25            CONDUIT     1.226    19  09:05      8.84    0.51    0.70
  N-27-N-26            CONDUIT     1.226    19  09:05     10.49    0.53    0.52
  N-28-N-27            CONDUIT     1.226    19  09:05      6.64    1.05    0.76
  N-29-N-28            CONDUIT     1.226    19  09:05      6.88    0.45    0.74
  N-3-N-2              CONDUIT     4.475   128  21:59      4.00    1.18    0.95
  N-30-N-29            CONDUIT     1.226    19  09:05      8.13    0.74    0.63
  N-31-N-30            CONDUIT     1.226    19  09:04      7.66    0.74    0.72
  N-4-N-3              CONDUIT     4.475   128  21:59      3.92    1.15    1.00
  N-5-N-4              CONDUIT     4.475   128  21:58      6.15    0.25    0.67
  N-6-N-5              CONDUIT     4.475   128  21:58     11.76    0.30    0.37
  N-7-N-6              CONDUIT     4.475   128  21:58      7.73    0.53    0.51
  N-8-N-7              CONDUIT     4.475   128  21:58      7.15    0.43    0.54
  N-9-N-8              CONDUIT     4.475   128  21:57      8.63    0.44    0.46
  N1-PS                CONDUIT     4.474   128  22:00      7.37    0.54    0.64
  RBW_FORCEMAIN        CONDUIT     2.323   128  22:56     11.41    0.91    1.00
  S-1-JCT-FM2          CONDUIT     0.682   128  22:05      7.28    0.04    0.56
  S-2-S-1              CONDUIT     0.576   128  21:07      7.42    0.38    0.38
  S-3-S-2              CONDUIT     0.000     0  00:00      0.00    0.00    0.26
  5A_PUMP_1            PUMP        4.752     0  17:37              1.00
  RBW_PUMP1            PUMP        2.304     0  19:25              1.00
  5A_OUTFALL           ORIFICE     0.000     0  00:00                      0.00
  
  
  ***************************
  Flow Classification Summary
  ***************************
  
  -------------------------------------------------------------------------------------
                      Adjusted    ---------- Fraction of Time in Flow Class ---------- 
                       /Actual         Up    Down  Sub   Sup   Up    Down  Norm  Inlet 
  Conduit               Length    Dry  Dry   Dry   Crit  Crit  Crit  Crit  Ltd   Ctrl  
  -------------------------------------------------------------------------------------
  5A_FORCEMAIN_A          1.00   0.00  0.06  0.00  0.83  0.10  0.00  0.00  0.41  0.00
  5A_FORCEMAIN_B          1.00   0.00  0.06  0.00  0.94  0.00  0.00  0.00  0.98  0.00
  5A_FORCEMAIN_C          1.00   0.00  0.00  0.00  1.00  0.00  0.00  0.00  0.00  0.00
  5A_FORCEMAIN_D          1.00   0.00  0.00  0.00  1.00  0.00  0.00  0.00  0.00  0.00
  5A_FORCEMAIN_E          1.00   0.00  0.00  0.00  1.00  0.00  0.00  0.00  0.00  0.00
  5A_FORCEMAIN_PARALLEL_A    1.00   0.00  0.00  0.00  1.00  0.00  0.00  0.00  0.00  0.00
  5A_FORCEMAIN_PARALLEL_B    1.00   0.00  0.00  0.00  1.00  0.00  0.00  0.00  0.00  0.00
  FM_TO_RIVERVIEW         1.00   0.00  0.06  0.00  0.59  0.34  0.00  0.00  0.00  0.00
  INTERCONNECT            1.00   0.00  0.00  0.00  1.00  0.00  0.00  0.00  0.00  0.00
  K-1A_K-25.2             1.00   0.00  0.00  0.00  1.00  0.00  0.00  0.00  0.00  0.00
  K-25.1-N-25             1.00   0.00  0.02  0.00  0.97  0.00  0.00  0.00  0.01  0.00
  K-25.2-K-25.1           1.00   0.00  0.12  0.00  0.88  0.00  0.00  0.00  1.00  0.00
  MC-1-RBW_WETWELL        1.20   0.00  0.00  0.00  0.31  0.00  0.00  0.69  0.00  0.00
  MC-2-MC-1               1.00   0.00  0.00  0.00  0.00  0.00  0.00  1.00  0.00  0.00
  MC-3-MC-2               1.00   0.00  0.04  0.00  0.61  0.34  0.00  0.00  0.32  0.00
  MC-4-MC-3               1.00   0.00  0.00  0.00  0.31  0.69  0.00  0.00  1.00  0.00
  N-10-N-9                1.00   0.00  0.00  0.00  0.12  0.88  0.00  0.00  0.12  0.00
  N-11-N-10               1.00   0.00  0.00  0.00  0.12  0.88  0.00  0.00  0.88  0.00
  N-12-N-11               1.00   0.00  0.00  0.00  0.12  0.88  0.00  0.00  0.15  0.00
  N-13-N-12               1.00   0.00  0.00  0.00  0.12  0.88  0.00  0.00  0.11  0.00
  N-13.1-N-13             1.00   0.00  0.39  0.00  0.60  0.00  0.00  0.00  1.00  0.00
  N-13.2-N-13.1           1.00   0.00  0.00  0.00  0.40  0.60  0.00  0.00  0.40  0.00
  N-14-N-13               1.00   0.00  0.00  0.00  0.13  0.87  0.00  0.00  1.00  0.00
  N-15-N-14               1.00   0.00  0.00  0.00  0.12  0.88  0.00  0.00  0.88  0.00
  N-16-N-15               1.00   0.00  0.00  0.00  0.13  0.86  0.00  0.00  0.12  0.00
  N-17-N-16               1.00   0.00  0.12  0.00  0.02  0.86  0.00  0.00  1.00  0.00
  N-18-N-17               1.00   0.00  0.00  0.00  0.13  0.86  0.00  0.00  0.00  0.00
  N-19-N-18               1.00   0.00  0.00  0.00  0.17  0.82  0.00  0.00  1.00  0.00
  N-2-N-1                 1.00   0.00  0.11  0.00  0.19  0.69  0.00  0.00  0.11  0.00
  N-20-N-19               1.00   0.00  0.00  0.00  0.12  0.88  0.00  0.00  0.88  0.00
  N-21-N-20               1.00   0.00  0.00  0.00  0.12  0.88  0.00  0.00  0.12  0.00
  N-22-N-21               1.00   0.00  0.00  0.00  0.13  0.86  0.00  0.00  0.00  0.00
  N-23-N-22               1.00   0.00  0.00  0.00  0.15  0.84  0.00  0.00  1.00  0.00
  N-24-N-23               1.00   0.00  0.00  0.00  0.12  0.88  0.00  0.00  0.99  0.00
  N-25-N-24               1.00   0.00  0.02  0.00  0.10  0.88  0.00  0.00  0.12  0.00
  N-26-N-25               1.00   0.03  0.25  0.00  0.16  0.56  0.00  0.00  1.00  0.00
  N-27-N-26               1.00   0.00  0.00  0.00  0.28  0.72  0.00  0.00  0.30  0.00
  N-28-N-27               1.00   0.00  0.00  0.00  0.28  0.71  0.00  0.00  0.00  0.00
  N-29-N-28               1.00   0.00  0.00  0.00  0.28  0.71  0.00  0.00  1.00  0.00
  N-3-N-2                 1.00   0.00  0.00  0.00  1.00  0.00  0.00  0.00  0.98  0.00
  N-30-N-29               1.00   0.00  0.00  0.00  0.28  0.71  0.00  0.00  0.28  0.00
  N-31-N-30               1.00   0.00  0.00  0.00  0.28  0.71  0.00  0.00  0.99  0.00
  N-4-N-3                 1.00   0.00  0.00  0.00  1.00  0.00  0.00  0.00  0.93  0.00
  N-5-N-4                 1.00   0.00  0.11  0.00  0.02  0.86  0.00  0.00  1.00  0.00
  N-6-N-5                 1.00   0.00  0.00  0.00  0.11  0.88  0.00  0.00  0.00  0.00
  N-7-N-6                 1.00   0.00  0.02  0.00  0.10  0.88  0.00  0.00  0.11  0.00
  N-8-N-7                 1.00   0.00  0.00  0.00  0.12  0.87  0.00  0.00  1.00  0.00
  N-9-N-8                 1.00   0.00  0.00  0.00  0.12  0.88  0.00  0.00  0.16  0.00
  N1-PS                   1.00   0.00  0.00  0.00  0.00  0.00  0.00  1.00  0.00  0.00
  RBW_FORCEMAIN           1.00   0.00  0.00  0.00  1.00  0.00  0.00  0.00  0.00  0.00
  S-1-JCT-FM2             1.00   0.06  0.41  0.00  0.08  0.44  0.00  0.00  0.99  0.00
  S-2-S-1                 1.00   0.00  0.00  0.00  0.48  0.52  0.00  0.00  0.14  0.00
  S-3-S-2                 1.00   0.00  1.00  0.00  0.00  0.00  0.00  0.00  0.00  0.00
  
  
  *************************
  Conduit Surcharge Summary
  *************************
  
  ----------------------------------------------------------------------------
                                                           Hours        Hours 
                         --------- Hours Full --------   Above Full   Capacity
  Conduit                Both Ends  Upstream  Dnstream   Normal Flow   Limited
  ----------------------------------------------------------------------------
  5A_FORCEMAIN_A              1.21      1.44    926.12     62.16         0.06
  5A_FORCEMAIN_B              1.43      1.43   4843.98      0.01         0.04
  5A_FORCEMAIN_C           4850.66   4850.81   4851.33     16.13        54.04
  5A_FORCEMAIN_D           4851.30   4851.32   4851.42   2425.89      2115.40
  5A_FORCEMAIN_E           4851.42   4851.42   4852.37    227.67       613.61
  5A_FORCEMAIN_PARALLEL_A     4843.62   4843.94   4850.83     18.75        58.61
  5A_FORCEMAIN_PARALLEL_B     4850.79   4850.79   4852.20    241.69       612.57
  FM_TO_RIVERVIEW             0.07      0.07   4852.18      0.07         0.01
  INTERCONNECT             4851.42   4851.47   4851.42    136.68      1279.30
  K-1A_K-25.2                 0.01      4.30      0.01      5.00         0.01
  K-25.1-N-25                 0.01      0.01   4854.89      0.01         0.01
  K-25.2-K-25.1               0.01      0.01   4854.89      0.01         0.01
  MC-1-RBW_WETWELL          766.47    766.47    810.24      0.01         7.38
  N-13.1-N-13                 0.01      0.01      3.06      0.01         0.01
  N-2-N-1                     0.01      0.01      0.01      0.92         0.01
  N-22-N-21                   0.01      1.48      0.01      1.33         0.01
  N-23-N-22                   0.01      0.01      1.48      0.01         0.01
  N-26-N-25                   0.01      0.01      1.90      0.01         0.01
  N-28-N-27                   0.01      0.42      0.01      0.08         0.01
  N-29-N-28                   0.01      0.01      0.42      0.01         0.01
  N-3-N-2                     0.01      0.04      0.01      1.10         0.01
  N-4-N-3                     0.04      0.51      0.04      1.01         0.04
  N-5-N-4                     0.01      0.01      0.51      0.01         0.01
  RBW_FORCEMAIN            3826.71   4851.90   3827.38      0.01      3024.72
  S-1-JCT-FM2                 0.01      0.01      1.44      0.01         0.01
  
  
  ***************
  Pumping Summary
  ***************
  
  ---------------------------------------------------------------------------------------------------------
                                                  Min       Avg       Max     Total     Power    % Time Off
                        Percent   Number of      Flow      Flow      Flow    Volume     Usage    Pump Curve
  Pump                 Utilized   Start-Ups       MGD       MGD       MGD  10^6 gal     Kw-hr    Low   High
  ---------------------------------------------------------------------------------------------------------
  5A_PUMP_1               13.95      131562      0.00      3.56      4.75   100.864  22859.38    0.0   37.4
  RBW_PUMP1                1.94        4429      0.00      2.23      2.30     8.787   1151.50    0.0   18.5
  

  Analysis begun on:  Fri Mar  6 14:40:20 2026
  Analysis ended on:  Fri Mar  6 14:48:35 2026
  Total elapsed time: 00:08:15