
  EPA STORM WATER MANAGEMENT MODEL - VERSION 5.2 (Build 5.2.4)
  ------------------------------------------------------------

  ALCOSAN System Wide Model 
  Date Modified: 11/03/2008 
  Author: Shyam/Khalid 
  
  ERROR 337: cannot open climate file C:\DATA\ALCOSAN\Models\Input_Files\DMR_Q3_2008\Climate_2008_Q3.dat.
  WARNING 10: crest elevation raised to downstream invert for regulator Link OR1atA-42A-00-A-42A-OFWEIR
  WARNING 10: crest elevation raised to downstream invert for regulator Link OR1atO-30-00-O-30-VOR
  WARNING 10: crest elevation raised to downstream invert for regulator Link OR1atSMR09-1-SMR09-1-SG2
  WARNING 10: crest elevation raised to downstream invert for regulator Link OR1atSMR54-1-SMR54-1-SG2
  WARNING 02: maximum depth increased for Node A-37Z-00
  WARNING 02: maximum depth increased for Node A-72-OFWEIR

  Analysis begun on:  Fri Mar  6 14:48:35 2026
  Analysis ended on:  Fri Mar  6 14:48:35 2026
  Total elapsed time: < 1 sec