
  EPA STORM WATER MANAGEMENT MODEL - VERSION 5.2 (Build 5.2.4)
  ------------------------------------------------------------

  WARNING 04: minimum elevation drop used for Conduit FM-122
  WARNING 04: minimum elevation drop used for Conduit FM-123
  WARNING 04: minimum elevation drop used for Conduit FM-126
  WARNING 04: minimum elevation drop used for Conduit FM-134
  WARNING 04: minimum elevation drop used for Conduit FM-139
  WARNING 04: minimum elevation drop used for Conduit FM-14
  WARNING 04: minimum elevation drop used for Conduit FM-15
  WARNING 04: minimum elevation drop used for Conduit FM-150
  WARNING 04: minimum elevation drop used for Conduit FM-163
  WARNING 04: minimum elevation drop used for Conduit FM-165
  WARNING 04: minimum elevation drop used for Conduit FM-166
  WARNING 04: minimum elevation drop used for Conduit FM-17
  WARNING 04: minimum elevation drop used for Conduit FM-173
  WARNING 04: minimum elevation drop used for Conduit FM-183
  WARNING 04: minimum elevation drop used for Conduit FM-184
  WARNING 04: minimum elevation drop used for Conduit FM-191
  WARNING 04: minimum elevation drop used for Conduit FM-200
  WARNING 04: minimum elevation drop used for Conduit FM-201
  WARNING 04: minimum elevation drop used for Conduit FM-202
  WARNING 04: minimum elevation drop used for Conduit FM-208
  WARNING 04: minimum elevation drop used for Conduit FM-22
  WARNING 04: minimum elevation drop used for Conduit FM-232
  WARNING 04: minimum elevation drop used for Conduit FM-24
  WARNING 04: minimum elevation drop used for Conduit FM-251
  WARNING 04: minimum elevation drop used for Conduit FM-254
  WARNING 04: minimum elevation drop used for Conduit FM-284
  WARNING 04: minimum elevation drop used for Conduit FM-284B
  WARNING 04: minimum elevation drop used for Conduit FM-287
  WARNING 04: minimum elevation drop used for Conduit FM-291
  WARNING 04: minimum elevation drop used for Conduit FM-294
  WARNING 03: negative offset ignored for Link FM-311
  WARNING 04: minimum elevation drop used for Conduit FM-329
  WARNING 04: minimum elevation drop used for Conduit FM-347
  WARNING 04: minimum elevation drop used for Conduit FM-351
  WARNING 04: minimum elevation drop used for Conduit FM-359
  WARNING 04: minimum elevation drop used for Conduit FM-384
  WARNING 04: minimum elevation drop used for Conduit FM-391
  WARNING 04: minimum elevation drop used for Conduit FM-401
  WARNING 04: minimum elevation drop used for Conduit FM-403
  WARNING 04: minimum elevation drop used for Conduit FM-404
  WARNING 04: minimum elevation drop used for Conduit FM-405
  WARNING 04: minimum elevation drop used for Conduit FM-406
  WARNING 04: minimum elevation drop used for Conduit FM-407
  WARNING 04: minimum elevation drop used for Conduit FM-408
  WARNING 04: minimum elevation drop used for Conduit FM-409
  WARNING 04: minimum elevation drop used for Conduit FM-63
  WARNING 04: minimum elevation drop used for Conduit FM-77
  WARNING 04: minimum elevation drop used for Conduit FM-82
  WARNING 04: minimum elevation drop used for Conduit FM-95
  WARNING 04: minimum elevation drop used for Conduit G-6007
  WARNING 02: maximum depth increased for Node J-146
  WARNING 02: maximum depth increased for Node J-94
  
  ****************
  Analysis Options
  ****************
  Flow Units ............... GPM
  Process Models:
    Rainfall/Runoff ........ NO
    RDII ................... NO
    Snowmelt ............... NO
    Groundwater ............ NO
    Flow Routing ........... YES
    Ponding Allowed ........ NO
    Water Quality .......... NO
  Flow Routing Method ...... DYNWAVE
  Surcharge Method ......... EXTRAN
  Starting Date ............ 03/12/2010 00:00:00
  Ending Date .............. 03/13/2010 00:00:00
  Antecedent Dry Days ...... 5.0
  Report Time Step ......... 00:00:05
  Routing Time Step ........ 5.00 sec
  Variable Time Step ....... YES
  Maximum Trials ........... 8
  Number of Threads ........ 1
  Head Tolerance ........... 0.001000 ft
  
  
  **************************        Volume        Volume
  Flow Routing Continuity        acre-feet      10^6 gal
  **************************     ---------     ---------
  Dry Weather Inflow .......         8.561         2.790
  Wet Weather Inflow .......         0.000         0.000
  Groundwater Inflow .......         0.000         0.000
  RDII Inflow ..............         0.000         0.000
  External Inflow ..........         0.002         0.001
  External Outflow .........         6.154         2.005
  Flooding Loss ............         0.000         0.000
  Evaporation Loss .........         0.000         0.000
  Exfiltration Loss ........         0.000         0.000
  Initial Stored Volume ....         0.178         0.058
  Final Stored Volume ......         2.443         0.796
  Continuity Error (%) .....         1.660
  
  
  *************************
  Highest Continuity Errors
  *************************
  Node J-113 (100.00%)
  Node JCT-140 (100.00%)
  Node JCT-186 (100.00%)
  Node JCT-432 (100.00%)
  Node JCT-438 (100.00%)
  
  
  ***************************
  Time-Step Critical Elements
  ***************************
  Link CDT-523 (11.84%)
  Link FM-284B (9.20%)
  Link FM-322B (8.00%)
  Link FM-317B (7.01%)
  Link FM-323B (5.05%)
  
  
  ********************************
  Highest Flow Instability Indexes
  ********************************
  Link FM-284B (20)
  Link FM-208 (14)
  Link FM-170 (13)
  Link FM-384 (13)
  Link CDT-289 (13)
  
  
  *********************************
  Most Frequent Nonconverging Nodes
  *********************************
  Node OFALL-10 (99.57%)
  Node J-94 (93.05%)
  Node J-159 (92.98%)
  Node J-93 (92.76%)
  Node J-84 (91.90%)
  
  
  *************************
  Routing Time Step Summary
  *************************
  Minimum Time Step           :     0.50 sec
  Average Time Step           :     4.11 sec
  Maximum Time Step           :     5.00 sec
  % of Time in Steady State   :     0.00
  Average Iterations per Step :     7.99
  % of Steps Not Converging   :    99.57
  Time Step Frequencies       :
      5.000 -  3.155 sec      :    84.96 %
      3.155 -  1.991 sec      :     9.60 %
      1.991 -  1.256 sec      :     3.02 %
      1.256 -  0.792 sec      :     1.60 %
      0.792 -  0.500 sec      :     0.81 %
  
  
  ******************
  Node Depth Summary
  ******************
  
  ---------------------------------------------------------------------------------
                                 Average  Maximum  Maximum  Time of Max    Reported
                                   Depth    Depth      HGL   Occurrence   Max Depth
  Node                 Type         Feet     Feet     Feet  days hr:min        Feet
  ---------------------------------------------------------------------------------
  01-115               JUNCTION     0.15     0.22    -0.85     0  12:19        0.22
  01-124               JUNCTION     0.19     0.27    -1.02     0  13:35        0.27
  01-134               JUNCTION     0.13     0.18     0.39     0  13:35        0.18
  01-135               JUNCTION     0.17     0.23     1.12     0  13:34        0.23
  01-136               JUNCTION     0.15     0.22     2.07     0  13:28        0.22
  01-148               JUNCTION     0.14     0.22     2.96     0  13:21        0.22
  01-151               JUNCTION     0.24     0.36     3.06     0  13:19        0.36
  01-152               JUNCTION     0.17     0.28     3.29     0  13:15        0.28
  01-183               JUNCTION     0.11     0.15     5.82     0  11:22        0.15
  01-187               JUNCTION     0.09     0.11     4.57     0  11:24        0.11
  01-188               JUNCTION     0.10     0.13     6.66     0  10:40        0.13
  01-192               JUNCTION     0.09     0.12     7.49     0  10:38        0.12
  01-196               JUNCTION     0.09     0.11     8.31     0  10:36        0.11
  01-20                JUNCTION     0.12     0.22     1.62     0  12:09        0.22
  01-204               JUNCTION     0.07     0.10     9.15     0  12:39        0.10
  01-206               JUNCTION     0.06     0.11    10.95     0  14:24        0.11
  01-21                JUNCTION     0.24     0.41     1.87     0  12:08        0.41
  01-212               JUNCTION     0.03     0.04     6.90     0  11:12        0.04
  01-226               JUNCTION     0.11     0.20     3.89     0  13:14        0.20
  01-227               JUNCTION     0.09     0.17     5.33     0  13:11        0.17
  01-23                JUNCTION     0.18     0.39     2.15     0  13:37        0.39
  01-231               JUNCTION     0.10     0.19     6.86     0  15:13        0.19
  01-232               JUNCTION     0.06     0.23     8.25     0  15:10        0.23
  01-233               JUNCTION     0.05     0.27     9.06     0  15:08        0.27
  01-24                JUNCTION     0.12     0.41     2.52     0  13:34        0.41
  01-25                JUNCTION     0.11     0.14     2.66     0  12:00        0.14
  01-28                JUNCTION     0.12     0.15     3.10     0  11:45        0.15
  01-38                JUNCTION     0.09     0.12     3.38     0  12:00        0.12
  01-39                JUNCTION     0.74     0.77     3.38     0  12:00        0.77
  01-40                JUNCTION     0.08     0.10     3.48     0  12:00        0.10
  01-41                JUNCTION     0.14     0.17     4.03     0  12:00        0.17
  01-42                JUNCTION     0.15     0.17     4.08     0  12:00        0.17
  01-44                JUNCTION     0.10     0.11     4.57     0  12:00        0.11
  01-45                JUNCTION     0.06     0.08     6.29     0  12:00        0.08
  01-46                JUNCTION     0.04     0.06     7.44     0  23:31        0.06
  01-89                JUNCTION     0.16     0.27     1.04     0  12:12        0.27
  01-90                JUNCTION     0.16     0.27     0.69     0  12:15        0.27
  01-91                JUNCTION     0.18     0.29     0.41     0  12:17        0.29
  01-92                JUNCTION     0.17     0.24    -0.26     0  12:18        0.24
  01-A-40              JUNCTION     0.06     0.12     7.65     0  23:30        0.12
  01-A6                JUNCTION     0.10     0.13     6.34     0  23:32        0.13
  04-11                JUNCTION     0.08     0.16     3.69     0  11:47        0.16
  04-12                JUNCTION     0.10     0.17     2.31     0  11:48        0.17
  04-13                JUNCTION     0.10     0.15     1.18     0  11:50        0.15
  04-16                JUNCTION     0.15     0.19    -4.07     0  11:43        0.19
  04-18                JUNCTION     0.10     0.13    -4.28     0  11:56        0.13
  04-21                JUNCTION     0.13     0.16    -3.07     0  11:43        0.16
  04-27                JUNCTION     0.11     0.14    -1.67     0  11:54        0.14
  04-28                JUNCTION     0.11     0.15    -0.33     0  11:52        0.15
  05-23                JUNCTION     0.13     0.18    -7.73     0  11:21        0.18
  05-24                JUNCTION     0.14     0.20    -7.50     0  11:20        0.20
  05-25                JUNCTION     0.13     0.18    -6.97     0  11:20        0.18
  05-26                JUNCTION     0.16     0.21    -5.31     0  11:19        0.21
  05-27                JUNCTION     0.11     0.19    -4.81     0  11:16        0.19
  05-29                JUNCTION     0.08     0.21    -3.75     0  11:15        0.21
  05-30                JUNCTION     0.09     0.29    -3.48     0  11:14        0.29
  05-40                JUNCTION     0.13     0.18    -7.98     0  11:21        0.18
  06-04                JUNCTION     0.00     0.00     1.66     0  00:00        0.00
  06-09                JUNCTION     0.05     0.06    -4.19     0  12:00        0.06
  06-11                JUNCTION     0.24     0.29    -3.93     0  12:00        0.29
  06-12                JUNCTION     0.10     0.13    -3.21     0  12:00        0.13
  06-21                JUNCTION     0.00     0.00    -3.43     0  00:00        0.00
  06-22                JUNCTION     0.00     0.00    -2.69     0  00:00        0.00
  06-25                JUNCTION     0.00     0.00    -1.56     0  00:00        0.00
  06-27                JUNCTION     0.00     0.00    -0.91     0  00:00        0.00
  06-28                JUNCTION     0.00     0.00     0.17     0  00:00        0.00
  06-29                JUNCTION     0.00     0.00     1.20     0  00:00        0.00
  06-30                JUNCTION     0.00     0.00     2.20     0  00:00        0.00
  06-31                JUNCTION     0.00     0.00     3.06     0  00:00        0.00
  06-52                JUNCTION     0.11     0.13    -2.31     0  12:00        0.13
  06-53                JUNCTION     0.10     0.13    -0.91     0  12:00        0.13
  06-54                JUNCTION     0.10     0.12     0.43     0  12:00        0.12
  06-55                JUNCTION     0.09     0.12     0.79     0  12:00        0.12
  06-56                JUNCTION     0.09     0.12     2.07     0  12:00        0.12
  08-01                JUNCTION     0.11     0.14    -3.00     0  11:55        0.14
  08-02                JUNCTION     0.13     0.17    -2.61     0  11:55        0.17
  08-09                JUNCTION     0.11     0.15    -0.62     0  11:54        0.15
  08-13                JUNCTION     0.07     0.09     1.01     0  11:17        0.09
  08-14                JUNCTION     0.09     0.14     0.32     0  11:51        0.14
  08-19                JUNCTION     0.05     0.13     2.61     0  11:49        0.13
  09-01                JUNCTION     0.10     0.13     0.92     0  11:34        0.13
  09-02                JUNCTION     0.18     0.23     3.57     0  11:55        0.23
  09-03                JUNCTION     0.21     0.27     4.72     0  11:54        0.27
  09-04                JUNCTION     0.16     0.22     6.10     0  11:51        0.22
  09-06                JUNCTION     0.14     0.21     7.28     0  12:45        0.21
  1000-1               JUNCTION     0.06     0.09     3.51     0  11:13        0.09
  1000-13              JUNCTION     0.11     0.17    -1.03     0  11:09        0.17
  1000-14              JUNCTION     0.06     0.12     1.81     0  11:08        0.12
  1000-15              JUNCTION     0.07     0.16     3.26     0  11:08        0.16
  1000-16              JUNCTION     0.10     0.13    -3.77     0  11:12        0.13
  1000-17              JUNCTION     0.08     0.12    -1.79     0  11:11        0.12
  1000-18              JUNCTION     0.08     0.25    11.12     0  15:11        0.25
  1000-2               JUNCTION     0.06     0.09     2.39     0  11:15        0.09
  1000-20              JUNCTION     0.06     0.46    -6.21     0  15:48        0.46
  1000-23              JUNCTION     0.41     0.91    -5.27     0  10:42        0.91
  1000-24              JUNCTION     0.23     0.29     2.48     0  13:24        0.29
  1000-28              JUNCTION     0.08     0.13     5.27     0  11:16        0.13
  1000-29              JUNCTION     0.28     0.99    -4.41     0  12:36        0.98
  1000-3               JUNCTION     0.04     0.45    -5.91     0  13:17        0.45
  1000-4               JUNCTION     0.08     0.11     4.80     0  11:17        0.11
  1000-5               JUNCTION     0.10     0.14     4.32     0  11:18        0.14
  1000-6               JUNCTION     0.10     0.16     6.66     0  11:06        0.16
  1000-7               JUNCTION     0.11     0.50    -6.40     0  09:04        0.50
  1000-8               JUNCTION     0.16     0.22    -1.00     0  12:19        0.22
  1000-9               JUNCTION     0.18     0.23     2.43     0  11:55        0.23
  13-01                JUNCTION     0.09     0.38     0.14     0  00:01        0.38
  13-02                JUNCTION     0.08     0.10     0.81     0  12:00        0.10
  13-04                JUNCTION     0.07     0.09     1.15     0  12:00        0.09
  13-05                JUNCTION     0.06     0.07     2.19     0  12:00        0.07
  13-10                JUNCTION     0.05     0.06     2.97     0  11:51        0.06
  25-01                JUNCTION     0.06     0.11    -4.60     0  10:31        0.11
  25-02                JUNCTION     0.07     0.10    -4.36     0  12:18        0.10
  25-03                JUNCTION     0.21     0.28    -2.36     0  12:17        0.28
  25-06                JUNCTION     0.07     0.14    -3.69     0  10:56        0.14
  25-07                JUNCTION     0.07     0.13    -3.12     0  10:55        0.13
  25-08                JUNCTION     0.07     0.15    -2.49     0  10:55        0.15
  25-09                JUNCTION     0.06     0.14    -1.77     0  11:47        0.14
  25-10                JUNCTION     0.06     0.15    -1.30     0  11:46        0.15
  25-11                JUNCTION     0.06     0.15    -0.74     0  11:46        0.15
  25-12                JUNCTION     0.05     0.15    -0.31     0  11:46        0.15
  25-13                JUNCTION     0.06     0.18    -0.05     0  11:45        0.18
  27-34                JUNCTION     0.08     0.10     0.26     0  12:00        0.10
  27-35                JUNCTION     0.10     0.12     1.65     0  12:00        0.12
  27-36                JUNCTION     0.07     0.09     3.08     0  12:00        0.09
  27-37                JUNCTION     0.08     0.09     4.08     0  12:00        0.09
  27-47                JUNCTION     0.06     0.08     5.40     0  12:00        0.08
  27-A28               JUNCTION     0.04     0.05     7.31     0  12:00        0.05
  29-01A               JUNCTION     0.02     0.03     6.37     0  12:00        0.03
  29-03                JUNCTION     0.05     0.06     7.67     0  12:00        0.06
  29-08                JUNCTION     0.04     0.04     8.81     0  11:58        0.04
  29-09                JUNCTION     0.04     0.05     8.12     0  12:00        0.05
  34-01                JUNCTION     0.08     0.46    -6.29     0  18:44        0.46
  34-17                JUNCTION     0.11     0.15     2.05     0  11:29        0.15
  34-20                JUNCTION     0.11     0.15     3.30     0  11:27        0.15
  34-21                JUNCTION     0.11     0.16     4.72     0  11:26        0.16
  34-23                JUNCTION     0.10     0.16     7.18     0  12:13        0.16
  34-26                JUNCTION     0.13     0.23     7.93     0  12:11        0.23
  34-28                JUNCTION     0.09     0.19     9.61     0  12:09        0.19
  34-29                JUNCTION     0.04     0.05    10.06     0  11:17        0.05
  39-01                JUNCTION     0.10     0.14     1.79     0  11:36        0.14
  39-02                JUNCTION     0.13     0.18     2.03     0  11:36        0.18
  39-03                JUNCTION     0.10     0.13     4.29     0  11:50        0.13
  39-04                JUNCTION     0.09     0.12     5.70     0  11:48        0.12
  39-05                JUNCTION     0.09     0.12     7.10     0  11:46        0.12
  39-06                JUNCTION     0.08     0.12     8.57     0  11:43        0.12
  39-07                JUNCTION     0.07     0.13     9.97     0  10:21        0.13
  39-08                JUNCTION     0.06     0.19    11.43     0  10:19        0.19
  39-09                JUNCTION     0.10     0.16     3.67     0  12:20        0.16
  39-10                JUNCTION     0.13     0.20     4.48     0  12:17        0.20
  39-11                JUNCTION     0.13     0.22     5.25     0  12:13        0.22
  39-12                JUNCTION     0.09     0.18     5.87     0  12:11        0.18
  39-14                JUNCTION     0.10     0.20     6.43     0  12:10        0.20
  39-26                JUNCTION     0.09     0.19     7.30     0  12:09        0.19
  39-27                JUNCTION     0.08     0.22     7.88     0  12:07        0.22
  39-28                JUNCTION     0.09     0.24     8.71     0  12:06        0.24
  39-29                JUNCTION     0.07     0.26     9.43     0  12:05        0.26
  39-31                JUNCTION     0.06     0.26    10.47     0  12:05        0.26
  44-A34               JUNCTION     0.03     0.04    10.59     0  12:00        0.04
  57-01                JUNCTION     0.15     0.44     6.58     0  12:14        0.44
  57-01A               JUNCTION     0.41     0.79     5.98     0  12:16        0.79
  57-02                JUNCTION     0.14     0.56     7.79     0  12:13        0.56
  65-01                JUNCTION     0.08     0.12    -5.52     0  11:02        0.12
  65-28                JUNCTION     0.10     0.16    -4.59     0  11:02        0.16
  65-29                JUNCTION     0.10     0.16    -3.81     0  10:59        0.16
  65-30                JUNCTION     0.11     0.18    -2.55     0  10:59        0.18
  65-31                JUNCTION     0.10     0.19    -1.77     0  10:57        0.19
  65-32                JUNCTION     0.15     0.30    -0.63     0  10:56        0.30
  65-33                JUNCTION     0.06     0.19     4.49     0  10:54        0.19
  65-34                JUNCTION     0.07     0.27     5.64     0  10:53        0.27
  68-01                JUNCTION     0.07     0.11     3.14     0  11:18        0.11
  68-A                 JUNCTION     0.09     0.14     6.15     0  11:16        0.14
  68-B                 JUNCTION     0.06     0.18     9.69     0  12:44        0.18
  68-C                 JUNCTION     0.07     0.15     8.65     0  11:12        0.15
  68-D                 JUNCTION     0.08     0.14     7.36     0  11:14        0.14
  69-01                JUNCTION     0.08     0.11    -4.31     0  11:13        0.11
  77-01                JUNCTION     0.06     0.21     1.53     0  00:12        0.21
  FM-0B                JUNCTION     0.42     3.13     8.88     0  09:30        2.45
  J-1                  JUNCTION     2.40   149.54   155.54     0  00:00       50.28
  J-100                JUNCTION    20.79   131.78   131.78     0  01:42      126.68
  J-101                JUNCTION     4.65    23.79    29.55     0  00:31       23.32
  J-103                JUNCTION     4.32    82.01    87.01     0  00:00       48.55
  J-104                JUNCTION     5.37    32.28    36.28     0  02:46       32.26
  J-105                JUNCTION     2.00    25.49    27.49     0  05:00       24.64
  J-106                JUNCTION     5.57    35.91    43.91     0  18:44       35.87
  J-108                JUNCTION     3.24    33.07    43.07     0  01:03       31.25
  J-110                JUNCTION     3.74    39.82    45.82     0  02:37       32.04
  J-111                JUNCTION    15.07    58.59    68.59     0  11:35       58.51
  J-112                JUNCTION    12.65    88.58    92.58     0  09:30       79.53
  J-113                JUNCTION     0.09     0.09     7.09     0  00:00        0.09
  J-114                JUNCTION     2.32    64.69    66.69     0  14:55       64.57
  J-115                JUNCTION     4.89    45.08    55.08     0  09:09       44.74
  J-116                JUNCTION     4.90    45.15    55.15     0  09:09       44.79
  J-117                JUNCTION    13.90    56.95    66.95     0  11:35       56.91
  J-118                JUNCTION    13.89    56.67    66.67     0  11:35       56.56
  J-119                JUNCTION    13.84    56.61    66.61     0  11:35       56.60
  J-12                 JUNCTION     1.26    50.68    62.68     0  00:00        9.75
  J-120                JUNCTION     6.29    64.64    72.64     0  09:29       63.99
  J-121                JUNCTION    20.42    78.39    86.39     0  09:27       73.08
  J-123                JUNCTION    21.95    66.45    74.45     0  09:28       66.23
  J-124                JUNCTION     2.39    32.98    38.98     0  00:01       31.08
  J-125                JUNCTION    24.77   106.24   112.24     0  09:31       95.10
  J-126                JUNCTION    10.06    85.85    89.85     0  03:12       81.72
  J-127                JUNCTION    25.27   121.72   129.72     0  09:31      100.88
  J-128                JUNCTION    12.67    53.21    55.21     0  09:09       53.14
  J-129                JUNCTION    24.19    90.60   100.60     0  09:15       88.96
  J-131                JUNCTION    43.95   160.30   160.30     0  09:27      160.05
  J-132                JUNCTION     2.86    21.17    23.17     0  01:53       20.27
  J-133                JUNCTION    18.65    61.59    73.59     0  09:28       61.39
  J-134                JUNCTION    18.65    61.78    73.78     0  09:28       61.58
  J-135                JUNCTION    22.56   193.35   203.35     0  00:00      167.40
  J-136                JUNCTION    20.52    98.65   108.65     0  09:31       96.03
  J-137                JUNCTION    21.28    80.12    90.12     0  09:31       79.21
  J-138                JUNCTION    21.60    81.95    91.95     0  09:31       80.51
  J-139                JUNCTION    18.81    62.73    74.73     0  09:31       59.09
  J-14                 JUNCTION     1.47    18.37    28.37     0  11:04       14.71
  J-140                JUNCTION    18.97    63.35    75.35     0  09:31       62.23
  J-142                JUNCTION    18.66    59.50    71.50     0  09:31       59.11
  J-143                JUNCTION    20.48    61.73    71.73     0  09:31       61.13
  J-144                JUNCTION    20.49    61.60    71.60     0  09:31       61.58
  J-145                JUNCTION     7.19   148.81   158.81     0  09:29      148.81
  J-146                JUNCTION    18.60    63.17    75.17     0  09:31       60.09
  J-147                JUNCTION    18.60    62.63    74.63     0  09:31       59.41
  J-148                JUNCTION    19.15    66.61    78.61     0  15:58       63.60
  J-149                JUNCTION    18.61    64.57    76.57     0  09:31       61.40
  J-150                JUNCTION    15.60    27.60    41.60     0  09:31       27.51
  J-151                JUNCTION    15.58    27.29    41.29     0  09:31       27.21
  J-152                JUNCTION    17.87    32.05    44.05     0  12:02       31.86
  J-153                JUNCTION    17.88    35.36    47.36     0  12:02       35.05
  J-154                JUNCTION    18.17    33.92    45.92     0  14:16       33.91
  J-155                JUNCTION    16.24    33.02    47.02     0  14:16       32.96
  J-156                JUNCTION    17.53    49.95    63.95     0  10:46       49.95
  J-157                JUNCTION    20.71    69.88    81.88     0  01:09       63.90
  J-158                JUNCTION    19.53    59.08    71.08     0  09:22       57.94
  J-159                JUNCTION    11.14    76.76    76.76     0  00:00       57.18
  J-160                JUNCTION     1.25     8.80     8.80     0  20:24        8.80
  J-17                 JUNCTION     6.34    36.99    40.99     0  07:49       35.69
  J-19                 JUNCTION     4.45    49.05    57.05     0  05:09       47.68
  J-2                  JUNCTION     0.04     0.16     8.16     0  23:54        0.16
  J-20                 JUNCTION     1.89    61.28    66.28     0  11:47       55.41
  J-22                 JUNCTION     3.87    28.80    38.80     0  01:58       23.78
  J-23                 JUNCTION     4.15    25.04    35.04     0  09:28       24.36
  J-24                 JUNCTION     5.72    29.68    35.68     0  09:15       29.42
  J-25                 JUNCTION     5.72    29.46    35.46     0  09:15       29.21
  J-26                 JUNCTION     3.93    36.84    46.84     0  09:15       36.68
  J-28                 JUNCTION     0.85    66.18    70.18     0  00:00       66.14
  J-29                 JUNCTION     3.57    21.92    31.92     0  02:27       21.90
  J-3                  JUNCTION     0.52    47.65    53.65     0  00:00       19.76
  J-30                 JUNCTION     2.57    20.67    31.67     0  02:27       20.61
  J-31                 JUNCTION     1.65    41.27    53.27     0  00:02       28.84
  J-32                 JUNCTION     0.61     6.61    16.61     0  12:14        6.37
  J-33                 JUNCTION     4.96    34.87    40.87     0  09:26       32.24
  J-34                 JUNCTION     1.80    36.04    46.04     0  09:56       30.31
  J-35                 JUNCTION     0.70     6.79    16.79     0  12:14        6.69
  J-36                 JUNCTION     0.31     0.58    10.58     0  12:16        0.58
  J-37                 JUNCTION     5.72    28.37    38.37     0  10:54       27.74
  J-38                 JUNCTION     1.47     2.69     8.69     0  12:29        2.65
  J-39                 JUNCTION     0.33     0.99     8.99     0  13:18        0.99
  J-4                  JUNCTION     0.47    15.00    21.00     0  20:06       14.99
  J-40                 JUNCTION     3.10    22.98    34.98     0  04:24       22.97
  J-41                 JUNCTION     2.34    16.08    28.08     0  04:24       16.07
  J-43                 JUNCTION     2.72    25.60    27.60     0  14:55       24.99
  J-46                 JUNCTION    27.99   305.24   311.24     0  09:31      194.23
  J-47                 JUNCTION     1.59     3.50     9.50     0  12:29        3.45
  J-48                 JUNCTION     2.35    83.61    95.61     0  00:00       16.38
  J-49                 JUNCTION     2.99    96.19   108.19     0  00:00       66.21
  J-5                  JUNCTION     8.64    94.49   106.49     0  00:52       94.49
  J-50                 JUNCTION     2.26    30.02    41.02     0  00:00       18.06
  J-51                 JUNCTION     1.10    45.11    57.11     0  09:23       19.26
  J-52                 JUNCTION     6.19    27.77    33.77     0  09:30       27.71
  J-53                 JUNCTION     2.69    22.33    32.33     0  09:23       20.35
  J-54                 JUNCTION     2.82    20.97    30.97     0  09:30       20.91
  J-56                 JUNCTION     1.21    25.40    37.40     0  09:29       22.01
  J-58                 JUNCTION     0.81    11.31    23.31     0  09:29        9.89
  J-59                 JUNCTION     2.69    22.68    32.68     0  09:23       20.25
  J-6                  JUNCTION     1.37    33.04    44.04     0  09:34       33.04
  J-60                 JUNCTION     1.65    24.55    30.55     0  07:52       24.49
  J-61                 JUNCTION    27.93    73.29    77.29     0  11:35       73.28
  J-62                 JUNCTION     3.72    50.49    62.49     0  00:00       48.77
  J-64                 JUNCTION     4.46    31.10    43.10     0  04:24       31.10
  J-66                 JUNCTION     3.69    29.50    41.50     0  04:24       29.48
  J-67                 JUNCTION     1.79    35.25    47.25     0  18:44       35.20
  J-69                 JUNCTION     3.04    26.87    36.87     0  18:44       26.75
  J-70                 JUNCTION     2.38    37.72    45.72     0  09:22       35.18
  J-71                 JUNCTION     0.66    65.69    77.69     0  00:00       16.32
  J-73                 JUNCTION     8.18    43.64    47.64     0  22:42       43.61
  J-75                 JUNCTION     8.17    43.61    47.61     0  22:42       43.59
  J-76                 JUNCTION    21.24   149.12   161.12     0  09:31      119.54
  J-77                 JUNCTION     3.30    27.85    37.85     0  09:30       27.71
  J-78                 JUNCTION     3.20    30.32    40.32     0  09:30       30.20
  J-79                 JUNCTION     3.33    27.88    37.88     0  09:30       27.75
  J-8                  JUNCTION     1.56    21.81    31.81     0  23:14       21.63
  J-80                 JUNCTION    21.18   143.71   155.71     0  09:31      117.36
  J-81                 JUNCTION     3.96    26.06    32.06     0  00:26       25.86
  J-82                 JUNCTION    14.64    58.61    70.61     0  11:35       58.60
  J-83                 JUNCTION     2.71    57.34    67.34     0  09:23       56.58
  J-84                 JUNCTION    10.77    41.17    43.17     0  09:23       40.14
  J-85                 JUNCTION     1.73    29.04    41.04     0  18:44       28.97
  J-86                 JUNCTION     1.73    28.75    40.75     0  18:44       28.73
  J-87                 JUNCTION     4.73    48.99    54.99     0  05:28       42.22
  J-88                 JUNCTION     3.70    53.78    63.78     0  01:41       49.10
  J-89                 JUNCTION    17.92   102.06   110.06     0  00:00       61.97
  J-9                  JUNCTION     4.91    63.75    73.75     0  11:52       63.02
  J-90                 JUNCTION    17.79    61.89    69.89     0  11:35       61.87
  J-91                 JUNCTION     3.19    13.11    17.11     0  00:19       12.63
  J-92                 JUNCTION     3.96    31.47    33.47     0  00:01       30.71
  J-93                 JUNCTION    10.70    50.44    50.44     0  10:42       50.44
  J-94                 JUNCTION    18.33    60.76    53.47     0  10:42       60.76
  J-95                 JUNCTION     7.98    39.97    41.97     0  10:42       39.95
  J-96                 JUNCTION     4.26    38.62    48.62     0  09:30       36.90
  J-97                 JUNCTION     4.09    53.59    63.59     0  09:30       52.37
  J-98                 JUNCTION     4.30    38.78    48.78     0  09:30       36.77
  J-99                 JUNCTION     3.14    27.84    33.84     0  02:46       27.81
  JCT-122              JUNCTION    21.41    78.56    69.90     0  10:46       78.52
  JCT-124              JUNCTION     0.59    64.94    56.28     0  00:00       48.45
  JCT-126              JUNCTION    31.95    82.87    77.46     0  09:22       82.67
  JCT-128              JUNCTION     1.18    79.77    74.36     0  00:00       66.87
  JCT-130              JUNCTION    11.14    46.50    44.91     0  00:00       16.97
  JCT-132              JUNCTION    27.86    48.79    47.20     0  14:16       48.73
  JCT-134              JUNCTION     0.00     0.00    -1.00     0  00:00        0.00
  JCT-138              JUNCTION    14.83    59.51    58.51     0  09:16       57.72
  JCT-140              JUNCTION     0.49     0.49    -6.68     0  00:00        0.49
  JCT-142              JUNCTION    25.89    69.00    61.83     0  09:12       66.00
  JCT-144              JUNCTION    28.41    85.22    77.45     0  09:23       84.79
  JCT-148              JUNCTION     1.13    83.70    75.93     0  00:00       79.49
  JCT-150              JUNCTION    18.60    39.54    30.35     0  00:00       39.00
  JCT-152              JUNCTION     8.39    39.54    30.35     0  00:00       38.61
  JCT-154              JUNCTION    14.16    46.58    37.58     0  09:23       45.53
  JCT-156              JUNCTION     1.34    43.73    34.73     0  00:00       34.73
  JCT-162              JUNCTION    31.66   114.17   101.73     0  16:51      113.93
  JCT-164              JUNCTION     0.88   111.95    99.51     0  00:00      106.24
  JCT-166              JUNCTION     0.00     0.00   -14.50     0  00:00        0.00
  JCT-168              JUNCTION     0.00     0.00   -14.50     0  00:00        0.00
  JCT-170              JUNCTION     0.00     0.00     1.99     0  00:00        0.00
  JCT-172              JUNCTION    16.32    59.70    61.69     0  11:37       58.85
  JCT-176              JUNCTION     0.32   124.38   116.16     0  00:00       89.34
  JCT-178              JUNCTION    23.13   169.60   161.38     0  09:29      169.60
  JCT-180              JUNCTION    19.36   178.76   179.10     0  00:00      178.03
  JCT-182              JUNCTION    10.16   178.76   179.10     0  00:00      178.03
  JCT-184              JUNCTION    28.46    84.58    75.66     0  09:30       84.36
  JCT-186              JUNCTION     0.32     0.32    -8.60     0  00:00        0.32
  JCT-188              JUNCTION    11.75   115.57   112.40     0  00:00      115.17
  JCT-190              JUNCTION    23.36   115.57   112.40     0  00:00      115.17
  JCT-192              JUNCTION     0.91    57.88    51.95     0  00:00       48.05
  JCT-194              JUNCTION     0.91    57.88    51.95     0  00:00       48.05
  JCT-196              JUNCTION    14.98    66.35    60.43     0  01:41       65.73
  JCT-198              JUNCTION     0.99    62.79    56.87     0  00:00       53.12
  JCT-200              JUNCTION     0.00     0.00    -6.50     0  00:00        0.00
  JCT-202              JUNCTION    15.43    50.64    44.14     0  18:44       50.62
  JCT-204              JUNCTION     1.12    24.46    25.68     0  00:00       17.80
  JCT-206              JUNCTION     1.12    24.46    25.68     0  00:00       17.80
  JCT-208              JUNCTION     9.10    34.54    32.67     0  00:00       33.73
  JCT-210              JUNCTION     9.10    34.54    32.67     0  00:00       33.73
  JCT-212              JUNCTION     0.00     0.00    -3.00     0  00:00        0.00
  JCT-214              JUNCTION     9.51    68.99    65.99     0  04:40       60.94
  JCT-216              JUNCTION    10.88    25.45    23.23     0  00:00       25.07
  JCT-218              JUNCTION     9.61    25.55    23.33     0  09:31       25.07
  JCT-222              JUNCTION    19.69    48.74    40.59     0  00:00       47.73
  JCT-224              JUNCTION    19.67    48.74    40.59     0  00:00       47.73
  JCT-226              JUNCTION    17.93    46.46    43.45     0  04:24       46.46
  JCT-228              JUNCTION     1.31    45.32    42.31     0  00:00       34.67
  JCT-230              JUNCTION     5.63    48.12    44.86     0  00:00       44.99
  JCT-232              JUNCTION    13.02    48.12    44.86     0  00:00       46.84
  JCT-234              JUNCTION    13.89    50.56    46.94     0  00:00       48.16
  JCT-236              JUNCTION     5.17    50.56    46.94     0  00:00       43.81
  JCT-238              JUNCTION     0.79    50.20    49.93     0  00:00       44.94
  JCT-240              JUNCTION     0.79    50.20    49.93     0  00:00       44.94
  JCT-242              JUNCTION     0.37    77.34    79.21     0  00:00       77.32
  JCT-244              JUNCTION    11.53    79.20    81.07     0  00:00       78.27
  JCT-246              JUNCTION     4.93    40.11    38.10     0  00:00       38.41
  JCT-248              JUNCTION    13.13    40.11    38.10     0  00:00       38.41
  JCT-250              JUNCTION     1.46    32.95    29.52     0  00:00       24.11
  JCT-252              JUNCTION    11.71    33.30    29.87     0  10:59       33.29
  JCT-254              JUNCTION    22.86   136.57   132.07     0  09:28      136.43
  JCT-256              JUNCTION     0.00     0.00    -4.50     0  00:00        0.00
  JCT-258              JUNCTION     0.00     0.00    -4.50     0  00:00        0.00
  JCT-260              JUNCTION     2.07    40.53    32.29     0  00:00       38.56
  JCT-262              JUNCTION     8.43    41.03    32.79     0  14:55       40.79
  JCT-264              JUNCTION     7.18    78.95    75.93     0  00:00       78.93
  JCT-266              JUNCTION     8.26    78.95    75.93     0  00:00       78.93
  JCT-268              JUNCTION     0.00     0.00    -5.92     0  00:00        0.00
  JCT-270              JUNCTION    13.27    53.26    47.34     0  15:58       53.25
  JCT-272              JUNCTION     0.00     0.00    -5.58     0  00:00        0.00
  JCT-274              JUNCTION     0.00     0.00    -5.58     0  00:00        0.00
  JCT-276              JUNCTION     0.00     0.00     0.52     0  00:00        0.00
  JCT-280              JUNCTION     5.99    67.00    67.52     0  09:23       66.59
  JCT-282              JUNCTION     0.00     0.00    -1.00     0  00:00        0.00
  JCT-284              JUNCTION     7.64    40.37    39.37     0  02:53       32.15
  JCT-286              JUNCTION     2.07    31.32    21.29     0  00:00       30.89
  JCT-288              JUNCTION     2.07    31.32    21.29     0  00:00       30.89
  JCT-290              JUNCTION     9.96    72.42    72.23     0  09:30       72.41
  JCT-292              JUNCTION     0.00     0.00    -0.19     0  00:00        0.00
  JCT-294              JUNCTION     9.28    64.32    64.33     0  09:30       62.77
  JCT-296              JUNCTION     0.99    62.45    62.46     0  00:00       58.16
  JCT-298              JUNCTION     0.63    65.08    65.30     0  00:00       49.88
  JCT-300              JUNCTION     0.63    65.08    65.30     0  00:00       49.88
  JCT-302              JUNCTION     0.00     0.00    -4.77     0  00:00        0.00
  JCT-304              JUNCTION    15.12    50.08    45.31     0  09:31       48.12
  JCT-306              JUNCTION     0.00     0.00    -0.56     0  00:00        0.00
  JCT-308              JUNCTION    11.60    56.07    55.51     0  09:09       55.72
  JCT-312              JUNCTION     0.48    61.08    59.81     0  00:00       54.49
  JCT-314              JUNCTION     9.59    61.08    59.81     0  00:00       54.49
  JCT-316              JUNCTION     2.03    64.32    64.99     0  00:00       56.54
  JCT-318              JUNCTION     2.03    64.32    64.99     0  00:00       56.54
  JCT-322              JUNCTION     0.79    21.48    15.56     0  00:00       17.32
  JCT-324              JUNCTION     8.62    23.00    17.08     0  02:57       22.90
  JCT-326              JUNCTION     0.00     0.00   -12.12     0  00:00        0.00
  JCT-328              JUNCTION    40.92   170.12   158.00     0  09:27      162.22
  JCT-330              JUNCTION    10.36    57.01    54.17     0  00:00       28.18
  JCT-332              JUNCTION    17.65    69.58    66.74     0  11:35       69.48
  JCT-334              JUNCTION    10.76    39.69    34.71     0  00:00       34.34
  JCT-336              JUNCTION     7.00    39.69    34.71     0  00:00       38.26
  JCT-338              JUNCTION    33.51   108.28    98.19     0  09:27       95.02
  JCT-340              JUNCTION     0.80   103.94    93.85     0  00:00       91.86
  JCT-342              JUNCTION     1.28    46.82    41.82     0  00:00       45.13
  JCT-344              JUNCTION     7.39    47.98    42.98     0  09:27       47.96
  JCT-346              JUNCTION     0.45    72.14    66.88     0  00:00       66.82
  JCT-348              JUNCTION    19.36    87.91    82.65     0  09:30       87.35
  JCT-350              JUNCTION     2.86    61.54    60.08     0  00:00       59.49
  JCT-352              JUNCTION     6.18    60.62    59.16     0  00:00       57.94
  JCT-354              JUNCTION     2.87    33.93    26.75     0  00:00       10.65
  JCT-356              JUNCTION     9.21    34.59    27.41     0  14:57       34.59
  JCT-358              JUNCTION    12.11    45.46    42.62     0  09:23       45.36
  JCT-360              JUNCTION     0.40    44.70    41.86     0  00:00       42.26
  JCT-362              JUNCTION     5.06    57.83    52.53     0  00:00       57.82
  JCT-364              JUNCTION    10.89    57.83    52.53     0  00:00       57.82
  JCT-366              JUNCTION     0.00     0.00    -9.00     0  00:00        0.00
  JCT-370              JUNCTION    13.53    53.26    44.26     0  02:32       50.11
  JCT-372              JUNCTION     4.93    37.82    29.98     0  00:00       21.51
  JCT-374              JUNCTION    14.52    62.61    54.77     0  10:41       62.61
  JCT-376              JUNCTION     6.79    35.05    30.70     0  03:39       33.43
  JCT-380              JUNCTION     6.49    34.68    30.33     0  00:00       33.43
  JCT-382              JUNCTION    16.14    62.20    57.06     0  09:52       62.15
  JCT-384              JUNCTION    12.40    60.98    55.84     0  00:00       54.18
  JCT-386              JUNCTION    13.24    52.25    48.44     0  05:28       50.15
  JCT-388              JUNCTION     0.81    50.69    46.88     0  00:00       46.96
  JCT-390              JUNCTION     0.48    81.86    75.63     0  00:00       63.48
  JCT-392              JUNCTION    33.59    84.99    78.76     0  11:35       84.99
  JCT-394              JUNCTION    15.17    34.63    27.74     0  00:00       33.06
  JCT-396              JUNCTION     0.98    34.63    27.74     0  00:00       32.08
  JCT-398              JUNCTION     0.00     0.00    -9.72     0  00:00        0.00
  JCT-402              JUNCTION    35.32   158.35   148.63     0  09:28      155.68
  JCT-404              JUNCTION     0.00     0.00    -9.72     0  00:00        0.00
  JCT-406              JUNCTION     0.41    40.34    33.71     0  00:00       29.58
  JCT-408              JUNCTION     8.25    40.34    33.71     0  00:00       37.34
  JCT-410              JUNCTION     6.23    54.54    48.04     0  09:22       51.00
  JCT-412              JUNCTION     0.00     0.00    -6.50     0  00:00        0.00
  JCT-414              JUNCTION     0.28    56.86    55.06     0  00:00       52.44
  JCT-416              JUNCTION     5.86    68.26    66.46     0  14:55       68.16
  JCT-418              JUNCTION    26.05   139.05   128.47     0  01:42      135.51
  JCT-420              JUNCTION     0.00     0.00   -10.58     0  00:00        0.00
  JCT-422              JUNCTION     3.26    34.27    18.72     0  00:00       34.08
  JCT-424              JUNCTION    19.42    34.55    19.00     0  09:30       34.14
  JCT-426              JUNCTION    16.12    58.52    50.02     0  00:00       56.29
  JCT-428              JUNCTION     2.34    58.52    50.02     0  00:00       13.88
  JCT-430              JUNCTION    10.57    46.22    38.72     0  12:39       45.89
  JCT-432              JUNCTION     0.66     0.66    -6.84     0  00:00        0.66
  JCT-434              JUNCTION     0.00     0.00    -3.00     0  00:00        0.00
  JCT-436              JUNCTION     7.43    47.13    44.13     0  07:46       47.03
  JCT-438              JUNCTION     0.62     0.62    -4.87     0  00:00        0.62
  JCT-440              JUNCTION    13.87    61.20    55.71     0  05:09       61.18
  JCT-442              JUNCTION    11.49    33.35    29.06     0  00:00       29.39
  JCT-444              JUNCTION    11.41    33.35    29.06     0  00:00       30.01
  JCT-446              JUNCTION     2.02    75.76    70.63     0  00:00       68.11
  JCT-448              JUNCTION     5.43    75.76    70.63     0  00:00       72.26
  JCT-450              JUNCTION    12.25    53.76    40.71     0  09:22       52.98
  JCT-452              JUNCTION     0.55     0.55   -12.50     0  00:00        0.55
  JCT-454              JUNCTION    10.73    38.64    32.32     0  23:14       38.40
  JCT-456              JUNCTION     0.28     0.28    -6.04     0  00:00        0.28
  JCT-458              JUNCTION     0.05     0.05     0.66     0  00:00        0.05
  JCT-460              JUNCTION     6.63    43.87    44.48     0  09:34       43.81
  JCT-462              JUNCTION     0.88    86.32    79.82     0  00:00       64.72
  JCT-464              JUNCTION    16.81    86.32    79.82     0  00:00       79.97
  JCT-466              JUNCTION     0.30    84.28    94.65     0  00:00       78.02
  JCT-468              JUNCTION    10.26    96.37   106.74     0  00:52       96.36
  JCT-470              JUNCTION     1.48    36.75    36.05     0  00:00       34.14
  JCT-472              JUNCTION     6.84    36.84    36.14     0  00:00       33.70
  JCT-474              JUNCTION    10.63    79.32    73.41     0  00:00       64.97
  JCT-476              JUNCTION     0.29    79.32    73.41     0  00:00       54.01
  JCT-478              JUNCTION     0.98    26.72    18.87     0  13:15       22.52
  JCT-482              JUNCTION     0.00     0.00    -7.85     0  00:00        0.00
  JCT-484              JUNCTION     0.72     6.89    16.89     0  12:14        6.80
  JCT-576              JUNCTION     0.17     2.09    14.59     0  13:05        1.96
  JCT-578              JUNCTION     0.54     2.26     9.26     0  02:39        2.18
  JCT-580              JUNCTION     0.44     7.54    15.54     0  09:23        2.43
  JCT-582              JUNCTION     0.33     1.94    14.94     0  00:11        1.55
  JCT-584              JUNCTION     0.14     0.18    12.68     0  00:01        0.18
  JCT-586              JUNCTION     0.30     2.04    14.79     0  05:09        1.45
  JCT-588              JUNCTION     0.34     0.75    13.75     0  14:00        0.75
  JCT-590              JUNCTION     0.46     3.93    16.43     0  09:28        2.79
  JCT-592              JUNCTION     0.33     1.25    13.00     0  11:41        1.20
  JCT-594              JUNCTION     0.00     0.00     7.75     0  00:00        0.00
  JCT-596              JUNCTION     0.29     2.27     6.02     0  18:39        2.14
  JCT-598              JUNCTION     0.12     0.24    14.24     0  11:35        0.24
  JCT-600              JUNCTION     0.28     0.46     4.21     0  11:48        0.46
  JCT-602              JUNCTION     0.57     9.41    16.66     0  03:20        8.58
  JCT-604              JUNCTION     0.49     0.92     8.17     0  13:23        0.92
  JCT-606              JUNCTION     0.48     1.95     9.45     0  02:28        1.74
  JCT-608              JUNCTION     0.34     2.93    14.68     0  07:50        1.87
  JCT-610              JUNCTION     0.43    22.39    27.39     0  02:41       11.59
  JCT-612              JUNCTION     0.58     3.65    16.65     0  14:25        3.36
  JCT-614              JUNCTION     0.08     1.56    10.31     0  23:30        0.86
  JCT-616              JUNCTION     0.29     2.68    14.68     0  12:35        2.23
  JCT-618              JUNCTION     0.00     0.01     8.76     0  20:08        0.01
  JCT-620              JUNCTION     0.68     7.27    20.27     0  03:27        6.27
  JCT-622              JUNCTION     0.46     1.53     8.28     0  10:23        1.39
  JCT-624              JUNCTION     1.31    20.49    34.24     0  09:25       19.08
  JCT-626              JUNCTION     0.31     1.35    14.10     0  02:40        1.17
  OFALL-10             OUTFALL     23.27    23.54    38.54     0  09:28       23.54
  LS-00                STORAGE      1.63     2.97     2.27     0  00:00        2.73
  LS-01                STORAGE      1.72     4.99    -1.51     0  00:00        4.87
  LS-02                STORAGE      2.12     3.00    -3.50     0  13:32        3.00
  LS-03                STORAGE      2.30     2.98    -4.52     0  00:00        2.85
  LS-04                STORAGE      3.08     4.01    -4.49     0  11:24        4.01
  LS-05                STORAGE      1.70     2.51    -8.07     0  10:17        2.50
  LS-06                STORAGE      4.81     5.71    -7.34     0  14:10        5.71
  LS-07                STORAGE      4.15     5.08    -4.64     0  13:42        5.07
  LS-08                STORAGE      1.68     2.50    -3.42     0  14:09        2.50
  LS-09                STORAGE      3.64     4.96    -1.27     0  10:50        4.95
  LS-10                STORAGE      0.64     1.44    -4.14     1  00:00        1.44
  LS-1002              STORAGE      1.71     2.43    12.80     0  00:00        2.00
  LS-1004              STORAGE      1.54     2.50     1.50     0  18:52        2.50
  LS-11                STORAGE      3.22     6.96     1.82     0  00:00        6.38
  LS-12                STORAGE      4.43     6.02     1.02     0  11:50        6.01
  LS-13                STORAGE      3.26     7.99     2.69     0  00:00        7.77
  LS-14                STORAGE      3.02     4.15     1.31     0  12:08        4.15
  LS-15                STORAGE      1.90     6.97     7.64     0  00:00        6.43
  LS-16                STORAGE      1.90     5.96     6.18     0  00:00        5.40
  LS-17                STORAGE      2.22     3.18     1.91     0  11:12        3.18
  LS-18                STORAGE      1.81     2.47     2.48     0  00:00        2.31
  LS-19                STORAGE      3.53     5.47     4.91     0  12:29        5.46
  LS-20                STORAGE      1.27     1.50     1.31     0  10:51        1.49
  LS-21                STORAGE      3.04     4.28    -0.49     0  11:22        4.28
  LS-22                STORAGE      1.51     2.51     1.51     0  12:31        2.51
  LS-23                STORAGE      2.07     2.48     3.00     0  13:49        2.48
  LS-24                STORAGE      1.93     2.54    -1.27     0  10:07        2.53
  LS-25                STORAGE      2.10     2.82    -5.02     0  21:14        2.81
  LS-26                STORAGE      2.94     4.50     5.11     0  15:06        4.50
  LS-27                STORAGE      2.14     2.91    -3.01     0  12:52        2.91
  LS-28                STORAGE      1.64     2.47    -3.46     0  00:00        2.07
  LS-29                STORAGE      3.24     5.00     2.00     0  11:22        5.00
  LS-30                STORAGE      3.63     4.91    -1.59     0  13:19        4.91
  LS-31                STORAGE      1.69     2.50     4.49     0  12:53        2.50
  LS-32                STORAGE      3.18     5.83    -6.29     0  11:04        5.81
  LS-33                STORAGE      1.47     2.48     3.70     0  00:00        2.12
  LS-34                STORAGE      2.51     3.56    -6.53     0  22:41        3.55
  LS-35                STORAGE      1.69     2.50    -0.50     0  22:37        2.50
  LS-38                STORAGE      1.88     2.48    -1.81     0  00:00        2.35
  LS-39                STORAGE      3.48     5.62     0.13     0  13:50        5.61
  LS-40                STORAGE      1.69     2.47    -2.66     0  00:00        2.12
  LS-41                STORAGE      2.21     4.35    -3.50     0  13:14        4.35
  LS-42                STORAGE      1.46     2.48    -7.55     0  00:00        2.29
  LS-43                STORAGE      0.00     0.00   -14.50     0  00:00        0.00
  LS-44                STORAGE      1.88     3.47     2.01     0  00:00        3.03
  LS-45                STORAGE      1.51     2.47    -3.85     0  00:00        1.86
  LS-46                STORAGE      1.15     2.48    -1.87     0  00:00        2.33
  LS-47                STORAGE      1.92     2.48   -13.07     0  00:00        2.36
  LS-49                STORAGE      2.14     2.84    -3.08     0  13:22        2.84
  LS-50                STORAGE      3.30     4.99     0.01     0  00:00        4.80
  LS-51                STORAGE      2.24     3.01    -3.88     0  10:32        3.01
  LS-53                STORAGE      2.12     3.02     4.89     0  15:08        3.00
  LS-54                STORAGE      1.68     2.47    -5.30     0  00:00        2.04
  LS-55                STORAGE      2.01     2.64    -4.53     0  11:27        2.64
  LS-56                STORAGE      1.28     1.98    -6.26     0  00:00        1.83
  LS-57                STORAGE      3.87     5.79     1.19     0  14:51        5.78
  LS-58                STORAGE      2.01     2.72    -6.20     0  15:19        2.71
  LS-59                STORAGE      0.72     1.49    -1.53     0  00:00        1.40
  LS-60                STORAGE      1.71     2.51    -6.49     0  11:40        2.50
  LS-61                STORAGE      1.94     2.48    -2.78     0  00:00        2.46
  LS-62                STORAGE      1.49     2.50    -0.67     0  00:00        2.42
  LS-63                STORAGE      2.06     2.71    -2.70     0  12:31        2.71
  LS-64                STORAGE      1.84     2.49    -4.69     0  00:00        2.36
  LS-65                STORAGE      3.11     4.94    -7.50     0  14:04        4.94
  LS-67                STORAGE      1.47     2.48     0.61     0  00:00        2.33
  LS-68                STORAGE      2.94     4.52     1.51     0  10:31        4.52
  LS-69                STORAGE      2.31     3.23    -5.77     0  12:56        3.23
  LS-70                STORAGE      2.83     4.29     0.86     0  10:59        4.29
  LS-71                STORAGE      1.85     2.48    -6.71     0  00:00        2.30
  LS-72                STORAGE      1.70     2.97     1.17     0  00:00        2.50
  LS-73                STORAGE      2.58     3.70    -4.52     0  17:41        3.70
  LS-74                STORAGE      2.27     3.07     1.48     0  14:15        3.07
  LS-75                STORAGE      2.53     3.66     0.04     0  13:57        3.66
  LS-76                STORAGE      1.80     3.98     1.97     0  00:00        3.60
  LS-77                STORAGE      2.38     3.36     0.10     0  00:14        3.36
  LS-78                STORAGE      3.92     6.55    -2.11     0  10:46        6.55
  LS-79                STORAGE      1.88     2.48    -4.15     0  00:00        2.35
  LS-81                STORAGE      1.97     2.48     0.26     0  00:00        2.46
  LS-82                STORAGE      1.25     7.97     8.31     0  00:00        7.50
  LS-83                STORAGE      1.95     7.98     5.14     0  00:00        7.64
  LS-84                STORAGE      4.02     7.99    -0.16     0  00:00        7.90
  LS-86                STORAGE      1.46     2.48     2.21     0  00:00        2.22
  LS-87                STORAGE      2.13     2.83    -3.08     0  17:55        2.83
  
  
  *******************
  Node Inflow Summary
  *******************
  
  -------------------------------------------------------------------------------------------------
                                  Maximum  Maximum                  Lateral       Total        Flow
                                  Lateral    Total  Time of Max      Inflow      Inflow     Balance
                                   Inflow   Inflow   Occurrence      Volume      Volume       Error
  Node                 Type           GPM      GPM  days hr:min    10^6 gal    10^6 gal     Percent
  -------------------------------------------------------------------------------------------------
  01-115               JUNCTION      5.13   168.99     0  12:18     0.00496       0.127       0.078
  01-124               JUNCTION      5.13   248.03     0  13:34     0.00496       0.199       0.127
  01-134               JUNCTION      5.13    77.95     0  13:34     0.00496       0.062       0.127
  01-135               JUNCTION      5.13    77.52     0  13:28     0.00496      0.0575       0.713
  01-136               JUNCTION      5.13    76.05     0  13:24     0.00496      0.0527       0.405
  01-148               JUNCTION      5.13    73.16     0  13:19     0.00496      0.0432       0.318
  01-151               JUNCTION      5.13    71.78     0  13:16     0.00496      0.0384       0.498
  01-152               JUNCTION      5.13    66.32     0  13:14     0.00496      0.0336       0.485
  01-183               JUNCTION      5.13    38.37     0  10:40     0.00496       0.035       0.271
  01-187               JUNCTION      5.13    48.33     0  11:22     0.00496      0.0448       0.244
  01-188               JUNCTION      5.13    33.72     0  10:38     0.00496      0.0301       0.224
  01-192               JUNCTION      5.13    29.29     0  10:36     0.00496      0.0252       0.239
  01-196               JUNCTION      5.13    25.40     0  10:34     0.00496      0.0203       0.291
  01-20                JUNCTION      5.13   109.32     0  12:08     0.00496      0.0583       0.142
  01-204               JUNCTION      5.13    25.63     0  14:24     0.00496      0.0155       0.963
  01-206               JUNCTION      5.13    38.53     0  12:34     0.00496      0.0105       0.113
  01-21                JUNCTION      5.13   135.92     0  12:04     0.00496      0.0539       1.034
  01-212               JUNCTION      5.13     5.13     0  11:00     0.00496     0.00496       0.058
  01-226               JUNCTION      5.13    68.46     0  13:11     0.00496      0.0286      -0.312
  01-227               JUNCTION      5.13    67.97     0  13:10     0.00496      0.0237       0.576
  01-23                JUNCTION      5.13   204.50     0  13:34     0.00496      0.0471      -3.821
  01-231               JUNCTION      5.13   101.68     0  15:10     0.00496      0.0189       0.557
  01-232               JUNCTION      5.13   138.51     0  15:09     0.00496      0.0139       0.020
  01-233               JUNCTION      5.13   365.15     0  20:00     0.00496     0.00905       0.531
  01-24                JUNCTION      5.13  1859.04     0  15:19     0.00496      0.0502      19.302
  01-25                JUNCTION      3.18    38.16     0  11:55     0.00307      0.0354       0.553
  01-28                JUNCTION      3.18    34.98     0  12:00     0.00307      0.0325       0.482
  01-38                JUNCTION      3.18    31.80     0  12:00     0.00307      0.0294       0.110
  01-39                JUNCTION      3.18    28.62     0  12:00     0.00307      0.0273       3.718
  01-40                JUNCTION      3.18    25.44     0  12:00     0.00307      0.0243       0.237
  01-41                JUNCTION      3.18    22.26     0  12:00     0.00307      0.0214       0.556
  01-42                JUNCTION      3.18    19.08     0  12:00     0.00307      0.0183       0.230
  01-44                JUNCTION      3.18    15.90     0  12:00     0.00307      0.0153       0.365
  01-45                JUNCTION      3.18    12.93     0  23:32     0.00307      0.0123       0.340
  01-46                JUNCTION      3.18    17.85     0  23:30     0.00307     0.00616       0.125
  01-89                JUNCTION      5.13   112.81     0  12:09     0.00496      0.0632       0.411
  01-90                JUNCTION      5.13   113.60     0  12:13     0.00496      0.0679       0.674
  01-91                JUNCTION      5.13   117.35     0  12:15     0.00496      0.0724      -0.186
  01-92                JUNCTION      5.13   163.99     0  12:18     0.00496       0.122       0.065
  01-A-40              JUNCTION      3.18   199.73     0  23:30     0.00307     0.00309       0.341
  01-A6                JUNCTION      3.18    11.23     0  23:31     0.00307     0.00922       0.106
  04-11                JUNCTION      4.90    95.23     0  00:41     0.00473      0.0248       0.667
  04-12                JUNCTION      4.90    69.62     0  11:47     0.00473      0.0293       0.481
  04-13                JUNCTION      4.90    58.81     0  11:48     0.00473      0.0339       0.307
  04-16                JUNCTION      4.90    58.39     0  11:43     0.00473      0.0524       0.061
  04-18                JUNCTION      4.90    63.20     0  11:43     0.00473      0.0571       0.026
  04-21                JUNCTION      4.90    55.10     0  11:54     0.00473      0.0478       0.246
  04-27                JUNCTION      4.90    53.27     0  11:52     0.00473      0.0432       0.240
  04-28                JUNCTION      4.90    52.76     0  11:50     0.00473      0.0386       0.206
  05-23                JUNCTION      8.94    81.22     0  11:21     0.00863       0.064       0.049
  05-24                JUNCTION      8.94    72.28     0  11:20     0.00863      0.0554       0.037
  05-25                JUNCTION      8.94    65.30     0  11:19     0.00863      0.0469       0.152
  05-26                JUNCTION      8.94    72.30     0  11:16     0.00863      0.0384       0.445
  05-27                JUNCTION      8.94   102.70     0  11:15     0.00863      0.0299       0.480
  05-29                JUNCTION      8.94   125.96     0  11:14     0.00863      0.0213      -0.129
  05-30                JUNCTION      8.94   117.92     0  11:14     0.00863      0.0127       0.233
  05-40                JUNCTION      8.94    90.01     0  11:21     0.00863      0.0726       0.041
  06-04                JUNCTION      0.00     0.00     0  00:00           0           0       0.000 gal
  06-09                JUNCTION      3.18    60.39     0  12:00     0.00307      0.0556       0.080
  06-11                JUNCTION      3.18    57.23     0  12:00     0.00307       0.053       0.867
  06-12                JUNCTION      3.18    54.06     0  12:00     0.00307        0.05       0.219
  06-21                JUNCTION      0.00     0.00     0  00:00           0           0       0.000 gal
  06-22                JUNCTION      0.00     0.00     0  00:00           0           0       0.000 gal
  06-25                JUNCTION      0.00     0.00     0  00:00           0           0       0.000 gal
  06-27                JUNCTION      0.00     0.00     0  00:00           0           0       0.000 gal
  06-28                JUNCTION      0.00     0.00     0  00:00           0           0       0.000 gal
  06-29                JUNCTION      0.00     0.00     0  00:00           0           0       0.000 gal
  06-30                JUNCTION      0.00     0.00     0  00:00           0           0       0.000 gal
  06-31                JUNCTION      0.00     0.00     0  00:00           0           0       0.000 gal
  06-52                JUNCTION      3.18    50.88     0  12:00     0.00307      0.0471       0.285
  06-53                JUNCTION      3.18    47.70     0  12:00     0.00307      0.0442       0.348
  06-54                JUNCTION      3.18    44.52     0  12:00     0.00307      0.0412       0.220
  06-55                JUNCTION      3.18    41.34     0  12:00     0.00307      0.0382       0.213
  06-56                JUNCTION      0.00    38.16     0  12:00           0      0.0352       0.178
  08-01                JUNCTION      4.46    54.38     0  11:55      0.0043      0.0473       0.042
  08-02                JUNCTION      4.46    50.22     0  11:54      0.0043       0.043       0.100
  08-09                JUNCTION      4.46    51.95     0  11:51      0.0043      0.0388       0.404
  08-13                JUNCTION      4.46    20.01     0  11:15      0.0043      0.0162       0.309
  08-14                JUNCTION      4.46    55.83     0  11:49      0.0043      0.0184       0.410
  08-19                JUNCTION      4.46    77.82     0  11:48      0.0043      0.0142       0.251
  09-01                JUNCTION     13.28   157.32     0  11:55      0.0128       0.145      -0.052
  09-02                JUNCTION     13.28   132.01     0  11:54      0.0128        0.12       0.108
  09-03                JUNCTION     13.28   132.33     0  11:51      0.0128       0.107       0.016
  09-04                JUNCTION     13.28   131.80     0  11:17      0.0128      0.0944       0.109
  09-06                JUNCTION     13.28   329.18     0  11:16      0.0128      0.0914       0.360
  1000-1               JUNCTION      4.46    73.69     0  00:00      0.0043     0.00766       0.510
  1000-13              JUNCTION      1.67    61.39     0  11:08     0.00161      0.0252       0.304
  1000-14              JUNCTION      1.67    63.00     0  11:08     0.00161      0.0236       0.095
  1000-15              JUNCTION      1.67   122.45     0  03:12     0.00161      0.0221       0.612
  1000-16              JUNCTION      1.67    35.92     0  11:11     0.00161      0.0282       0.103
  1000-17              JUNCTION      1.67    39.76     0  11:10     0.00161      0.0267       0.247
  1000-18              JUNCTION      0.00   286.83     0  05:09           0       0.046       0.344
  1000-2               JUNCTION      4.46    18.35     0  11:13      0.0043      0.0119       0.134
  1000-20              JUNCTION      2.30   312.37     0  10:34     0.00222      0.0173       1.167
  1000-23              JUNCTION      2.30   548.22     0  10:42     0.00222       0.165       0.036
  1000-24              JUNCTION      5.13    73.97     0  13:21     0.00496       0.048       0.457
  1000-28              JUNCTION      3.52    42.90     0  11:16      0.0034      0.0272       0.032
  1000-29              JUNCTION      4.90   284.20     0  00:00     0.00473      0.0625      -0.404
  1000-3               JUNCTION      2.30   452.50     0  18:42     0.00222      0.0147      -0.179
  1000-4               JUNCTION      3.52    46.35     0  11:16      0.0034      0.0306       0.024
  1000-5               JUNCTION      3.52    49.84     0  11:17      0.0034       0.034       0.153
  1000-6               JUNCTION      2.30    66.20     0  11:05     0.00222      0.0403       0.078
  1000-7               JUNCTION      2.30   306.03     0  15:48     0.00222      0.0308      -7.722
  1000-8               JUNCTION      5.13   173.90     0  12:19     0.00496       0.132       0.043
  1000-9               JUNCTION     13.28   144.27     0  11:55      0.0128       0.133       0.052
  13-01                JUNCTION      4.64   440.19     0  00:00     0.00448      0.0226      -0.146
  13-02                JUNCTION      4.64    18.57     0  12:00     0.00448      0.0179       0.251
  13-04                JUNCTION      4.64    13.93     0  12:00     0.00448      0.0134       0.247
  13-05                JUNCTION      4.64     9.29     0  11:51     0.00448     0.00896       0.356
  13-10                JUNCTION      4.64     4.64     0  11:00     0.00448     0.00448       0.188
  25-01                JUNCTION      1.07    57.64     0  10:29     0.00104      0.0294       0.069
  25-02                JUNCTION      1.07    13.69     0  12:17     0.00104     0.00996       0.101
  25-03                JUNCTION      1.07   169.26     0  02:41     0.00104     0.00907       1.636
  25-06                JUNCTION      1.07    46.65     0  11:48     0.00104      0.0185       0.148
  25-07                JUNCTION      1.07    45.56     0  11:48     0.00104      0.0174      -0.058
  25-08                JUNCTION      1.07    48.65     0  11:47     0.00104      0.0164       0.111
  25-09                JUNCTION      1.07    50.96     0  11:46     0.00104      0.0154       0.101
  25-10                JUNCTION      1.07    51.19     0  11:46     0.00104      0.0144       0.078
  25-11                JUNCTION      1.07    51.01     0  11:46     0.00104      0.0133       0.096
  25-12                JUNCTION      1.07    50.10     0  11:45     0.00104      0.0123       0.104
  25-13                JUNCTION      1.07    49.79     0  09:23     0.00104      0.0113       0.138
  27-34                JUNCTION      4.96    29.74     0  12:00     0.00479      0.0285       0.258
  27-35                JUNCTION      4.96    24.79     0  12:00     0.00479      0.0238       0.283
  27-36                JUNCTION      4.96    19.83     0  12:00     0.00479       0.019       0.243
  27-37                JUNCTION      4.96    14.87     0  12:00     0.00479      0.0143       0.371
  27-47                JUNCTION      4.96     9.91     0  12:00     0.00479     0.00955       0.455
  27-A28               JUNCTION      4.96     4.96     0  11:00     0.00479     0.00479       0.552
  29-01A               JUNCTION      2.60    10.40     0  12:00     0.00251        0.01       0.034
  29-03                JUNCTION      2.60     7.80     0  11:56     0.00251     0.00752       0.433
  29-08                JUNCTION      2.60     2.60     0  11:00     0.00251     0.00251       0.309
  29-09                JUNCTION      2.60     5.20     0  11:59     0.00251     0.00501       0.113
  34-01                JUNCTION      2.30   310.41     0  20:41     0.00222      0.0216       1.074
  34-17                JUNCTION      2.30    61.20     0  11:27     0.00222      0.0467       0.202
  34-20                JUNCTION      2.30    58.85     0  11:26     0.00222      0.0445       0.051
  34-21                JUNCTION      2.30    64.53     0  11:07     0.00222      0.0425       0.450
  34-23                JUNCTION      2.30    69.68     0  12:12     0.00222      0.0382       0.372
  34-26                JUNCTION      2.30    90.12     0  12:09     0.00222      0.0359      -0.092
  34-28                JUNCTION      2.30   409.94     0  16:14     0.00222       0.034       0.684
  34-29                JUNCTION      2.30     4.61     0  11:57     0.00222     0.00444       0.231
  39-01                JUNCTION      2.80   101.32     0  11:36      0.0027      0.0729       0.031
  39-02                JUNCTION      2.80    98.55     0  11:36      0.0027      0.0702       0.037
  39-03                JUNCTION      2.80    33.32     0  11:48      0.0027      0.0282       0.253
  39-04                JUNCTION      2.80    32.14     0  11:46      0.0027      0.0256       0.335
  39-05                JUNCTION      2.80    32.69     0  11:43      0.0027       0.023       0.417
  39-06                JUNCTION      2.80    37.30     0  10:21      0.0027      0.0204       0.405
  39-07                JUNCTION      2.80    78.80     0  10:19      0.0027      0.0177       0.454
  39-08                JUNCTION      2.80   338.48     0  00:00      0.0027      0.0153       1.883
  39-09                JUNCTION      2.80    66.74     0  12:17      0.0027      0.0395       0.354
  39-10                JUNCTION      2.80    77.24     0  12:14      0.0027      0.0372       0.989
  39-11                JUNCTION      2.80    80.53     0  12:11      0.0027      0.0346       0.454
  39-12                JUNCTION      2.80    78.70     0  12:10      0.0027       0.032       0.072
  39-14                JUNCTION      2.80    81.00     0  12:09      0.0027      0.0293       0.290
  39-26                JUNCTION      2.80    92.62     0  12:07      0.0027      0.0268       0.527
  39-27                JUNCTION      2.80    89.29     0  12:06      0.0027      0.0241      -0.055
  39-28                JUNCTION      2.80   122.22     0  12:05      0.0027      0.0215       0.441
  39-29                JUNCTION      2.80   126.58     0  12:05      0.0027      0.0188       0.137
  39-31                JUNCTION      2.80   162.32     0  01:59      0.0027      0.0162       0.490
  44-A34               JUNCTION      2.30     2.30     0  11:00     0.00222     0.00222       0.233
  57-01                JUNCTION      0.00  1068.52     0  12:13           0       0.211       0.882
  57-01A               JUNCTION      0.00   788.85     0  12:14           0       0.209       0.835
  57-02                JUNCTION      0.00  1274.38     0  12:13           0        0.21      -0.308
  65-01                JUNCTION      1.90    58.27     0  11:02     0.00183      0.0413       0.031
  65-28                JUNCTION      1.90    61.34     0  11:00     0.00183      0.0396       0.312
  65-29                JUNCTION      1.90    59.31     0  10:59     0.00183      0.0378       0.010
  65-30                JUNCTION      1.90    71.19     0  10:57     0.00183      0.0361       0.283
  65-31                JUNCTION      1.90    76.64     0  10:56     0.00183      0.0343       0.105
  65-32                JUNCTION      1.90   149.42     0  10:54     0.00183      0.0325       0.244
  65-33                JUNCTION      1.90   192.03     0  10:54     0.00183      0.0307       0.240
  65-34                JUNCTION      1.90   494.95     0  09:23     0.00183      0.0293       1.465
  68-01                JUNCTION      3.52    51.12     0  11:18      0.0034      0.0373       0.025
  68-A                 JUNCTION      3.52    44.11     0  11:14      0.0034      0.0238       0.171
  68-B                 JUNCTION      3.52   129.30     0  09:31      0.0034      0.0147       1.238
  68-C                 JUNCTION      3.52    64.09     0  11:57      0.0034      0.0171       0.184
  68-D                 JUNCTION      3.52    48.98     0  11:12      0.0034      0.0204       0.159
  69-01                JUNCTION      1.67    36.90     0  11:12     0.00161      0.0298       0.041
  77-01                JUNCTION     11.41   143.37     0  14:55       0.011      0.0127       0.067
  FM-0B                JUNCTION      0.00    68.02     0  00:41           0      0.0206       1.357
  J-1                  JUNCTION      0.00  1013.58     0  00:00           0     0.00388       2.791
  J-100                JUNCTION      0.00   788.98     0  01:11           0      0.0737       2.993
  J-101                JUNCTION      0.00   277.72     0  00:00           0      0.0214       0.584
  J-103                JUNCTION      0.00   584.08     0  00:00           0      0.0102       2.723
  J-104                JUNCTION      0.00   539.08     0  01:22           0       0.143       1.478
  J-105                JUNCTION      0.00    54.17     0  13:58           0      0.0101      -1.571
  J-106                JUNCTION      0.00   545.41     0  02:21           0      0.0352       7.124
  J-108                JUNCTION      0.00   970.27     0  00:00           0      0.0307       4.802
  J-110                JUNCTION      0.00   726.51     0  00:00           0      0.0318       3.504
  J-111                JUNCTION      0.00   558.44     0  20:22           0       0.181       3.476
  J-112                JUNCTION      0.00  1066.08     0  00:00           0      0.0465      -2.933
  J-113                JUNCTION      0.00   921.47     0  00:00           0    0.000165     165.368 gal
  J-114                JUNCTION      0.00   673.73     0  00:00           0       0.004      -0.556
  J-115                JUNCTION      0.00   621.24     0  02:53           0      0.0514       4.571
  J-116                JUNCTION      0.00   650.27     0  04:09           0      0.0238      -2.024
  J-117                JUNCTION      0.00  1156.86     0  10:40           0        0.36      -0.219
  J-118                JUNCTION      0.00   984.00     0  00:00           0      0.0561       0.281
  J-119                JUNCTION      0.00   920.24     0  00:01           0       0.397      -0.104
  J-12                 JUNCTION      0.00   855.60     0  00:00           0      0.0126      -0.564
  J-120                JUNCTION      0.00   611.59     0  01:36           0      0.0254       6.537
  J-121                JUNCTION      0.00  2529.49     0  00:00           0       0.194      -0.204
  J-123                JUNCTION      0.00   153.60     0  03:22           0     0.00733     109.359
  J-124                JUNCTION      0.00   965.51     0  00:00           0      0.0138       2.805
  J-125                JUNCTION      0.00  2882.77     0  11:52           0       0.949       6.831
  J-126                JUNCTION      0.00   243.54     0  00:00           0     0.00435      11.290
  J-127                JUNCTION      0.00   190.75     0  00:00           0     0.00587       1.159
  J-128                JUNCTION      0.00   543.23     0  01:43           0      0.0185       4.676
  J-129                JUNCTION      0.00  1199.11     0  00:00           0      0.0464       5.272
  J-131                JUNCTION      0.00  2069.15     0  04:30           0       0.387       4.205
  J-132                JUNCTION      0.00   564.00     0  00:00           0     0.00963       5.744
  J-133                JUNCTION      0.00   681.71     0  09:02           0        0.16       3.482
  J-134                JUNCTION      0.00   739.81     0  10:27           0      0.0599       3.520
  J-135                JUNCTION      0.00  1416.02     0  00:00           0      0.0156       1.297
  J-136                JUNCTION      0.00   895.78     0  02:19           0      0.0302      22.087
  J-137                JUNCTION      0.00  3667.38     0  09:28           0        1.34       3.317
  J-138                JUNCTION      0.00  1573.28     0  10:12           0       0.429       2.990
  J-139                JUNCTION      0.00  3752.56     0  09:28           0        1.33       1.192
  J-14                 JUNCTION      0.00  1453.00     0  15:18           0      0.0912      17.029
  J-140                JUNCTION      0.00  3701.64     0  09:28           0        1.28       1.930
  J-142                JUNCTION      0.00   819.27     0  03:10           0       0.207       0.859
  J-143                JUNCTION      0.00   986.53     0  09:32           0        0.28       2.099
  J-144                JUNCTION      0.00  1148.00     0  09:32           0       0.316       1.439
  J-145                JUNCTION      0.00   240.31     0  00:00           0     0.00475       0.994
  J-146                JUNCTION      0.00  1511.30     0  07:34           0       0.394       1.876
  J-147                JUNCTION      0.00  3915.46     0  09:29           0        1.64       2.642
  J-148                JUNCTION      0.00  1106.47     0  00:00           0      0.0218       4.901
  J-149                JUNCTION      0.00   819.58     0  04:00           0      0.0239       9.012
  J-150                JUNCTION      0.00  5034.27     0  09:29           0        2.42       2.710
  J-151                JUNCTION      0.00  5032.99     0  09:29           0        2.01       0.219
  J-152                JUNCTION   1324.44  2028.17     0  12:02        1.28        1.33       2.321
  J-153                JUNCTION      0.00   679.06     0  06:52           0     0.00638       6.469
[...]
  FM-63                      17.61     17.61     17.61      3.60         6.59
  FM-64                      15.50     15.50     16.65      1.69         1.72
  FM-77                       9.30     10.93     11.20     16.89         5.67
  FM-78                      10.82     10.90     18.77      0.26         0.14
  FM-80                       0.01      0.01      3.63      0.01         0.01
  FM-82                       0.01      0.02      0.01     17.74         0.01
  FM-85                       0.01      0.01     16.95      2.46         0.01
  FM-9                       20.97     20.98     22.27      4.50         0.78
  FM-95                      12.46     12.49     12.86      6.28         5.59
  G-1177                      0.01      0.01      0.01      0.01         0.01
  G-1266                      0.01      0.01      0.08      0.01         0.01
  G-1579                      0.01      0.01      3.12      0.01         0.01
  G-3003                      0.01      0.01      0.58      0.01         0.01
  G-3004                      0.58      0.58     15.58      0.01         0.01
  
  
  ***************
  Pumping Summary
  ***************
  
  ---------------------------------------------------------------------------------------------------------
                                                  Min       Avg       Max     Total     Power    % Time Off
                        Percent   Number of      Flow      Flow      Flow    Volume     Usage    Pump Curve
  Pump                 Utilized   Start-Ups       GPM       GPM       GPM  10^6 gal     Kw-hr    Low   High
  ---------------------------------------------------------------------------------------------------------
  LS-00_PMP-1              0.41           3      0.00    118.07    487.46     0.001      0.06    0.0    0.6
  LS-00_PMP-2              0.04           1      0.00    142.64    487.46     0.000      0.01    0.0    5.9
  LS-01_PMP-1             10.57          48      0.00   1366.71   1946.06     0.204     31.71    0.0   25.7
  LS-01_PMP-2              0.13           1      0.00   1915.54   1946.06     0.004      0.22    0.0   97.2
  LS-02_PMP-1              0.51          10      0.00    582.17    649.56     0.004      0.48    0.0    2.9
  LS-02_PMP-2              0.00           0      0.00      0.00      0.00     0.000      0.00    0.0    0.0
  LS-03_PMP-1              2.09          37      0.00    529.43    710.00     0.015      1.32    0.0    4.1
  LS-03_PMP-2              0.02           1      0.00    710.00    710.00     0.000      0.00    0.0  100.0
  LS-04_PMP-1              6.04          42      0.00    723.00    845.48     0.062      5.99    0.0   14.4
  LS-04_PMP-2              0.04           1      0.00    833.93    845.48     0.001      0.01    0.0   94.8
  LS-05_PMP-1             11.08          45      0.00    450.55    764.89     0.071     25.69    0.0    3.4
  LS-05_PMP-2              0.00           0      0.00      0.00      0.00     0.000      0.00    0.0    0.0
  LS-06_PMP-1              3.44          53      0.00   1136.97   1408.70     0.056      6.07    0.0    9.7
  LS-06_PMP-2              0.01           1      0.00   1408.70   1408.70     0.000      0.00    0.0  100.0
  LS-07_PMP-1             27.82         317      0.00   1228.70   2170.87     0.493    112.95    0.0  100.0
  LS-07_PMP-2              0.00           0      0.00      0.00      0.00     0.000      0.00    0.0    0.0
  LS-07_PMP-3              0.00           0      0.00      0.00      0.00     0.000      0.00    0.0    0.0
  LS-08_PMP-1              8.26          35      0.00    394.09    572.73     0.046      5.89    0.0   14.1
  LS-08_PMP-2              0.00           0      0.00      0.00      0.00     0.000      0.00    0.0    0.0
  LS-09_PMP-1             27.21         115      0.00    367.92    826.16     0.144     30.75    0.0    0.1
  LS-09_PMP-2              0.02           1      0.00    715.66    826.16     0.000      0.03    0.0   31.1
  LS-1002_PMP-1            2.40          71      0.00    102.04    845.48     0.004      0.85    0.0    0.1
  LS-1002_PMP-2            0.01           1      0.00    247.67    845.48     0.000      0.01    0.0    8.2
  LS-1004_PMP-1            0.39          11      0.00    498.57    677.17     0.003      0.43    0.0    0.0
  LS-1004_PMP-2            0.00           0      0.00      0.00      0.00     0.000      0.00    0.0    0.0
  LS-10_PMP-1              0.00           0      0.00      0.00      0.00     0.000      0.00    0.0    0.0
  LS-10_PMP-2              0.00           0      0.00      0.00      0.00     0.000      0.00    0.0    0.0
  LS-11_PMP-1              1.46          16      0.00    328.81    725.14     0.007      0.90    0.0    0.2
  LS-11_PMP-2              0.07           1      0.00    396.14    725.14     0.000      0.04    0.0    4.9
  LS-12_PMP-1              6.37          58      0.00    309.74    645.98     0.028      3.05    0.0    0.1
  LS-12_PMP-2              0.03           1      0.00    447.75    645.98     0.000      0.01    0.0   17.6
  LS-13_PMP-1              5.60          53      0.00    289.17    517.15     0.023      2.78    0.0    1.6
  LS-13_PMP-2              0.20           1      0.00    368.92    517.15     0.001      0.08    0.0   18.7
  LS-14_PMP-1             17.37          62      0.00    101.25    495.21     0.025      2.96    0.0    0.0
  LS-14_PMP-2              0.06           1      0.00    181.20    495.21     0.000      0.02    0.0    3.8
  LS-15_PMP-1              0.05           1      0.00    540.36    572.79     0.000      0.03    0.0   19.6
  LS-15_PMP-2              0.05           1      0.00    540.36    572.79     0.000      0.03    0.0   19.6
  LS-16_PMP-1              0.04           1      0.00    541.10    761.14     0.000      0.03    0.0    7.5
  LS-16_PMP-2              0.04           1      0.00    541.10    761.14     0.000      0.03    0.0    7.5
  LS-17_PMP-1              2.76          71      0.00    524.16    577.21     0.020      1.85    0.0   14.6
  LS-17_PMP-2              0.01           1      0.00    529.42    577.21     0.000      0.00    0.0   71.2
  LS-18_PMP-1              3.43         140      0.00    420.78    572.86     0.021      2.49    0.0    7.2
  LS-18_PMP-2              0.01           1      0.00    460.98    572.86     0.000      0.01    0.0   35.6
  LS-19_PMP-1              1.64          24      0.00    567.90    611.44     0.013      1.09    0.0   44.7
  LS-19_PMP-2              0.00           0      0.00      0.00      0.00     0.000      0.00    0.0    0.0
  LS-20_PMP-1              1.96         191      0.00    383.68    599.23     0.011      1.66    0.0    1.6
  LS-20_PMP-2              0.00           0      0.00      0.00      0.00     0.000      0.00    0.0    0.0
  LS-21_PMP-1              5.10          46      0.00    232.44    529.18     0.017      1.87    0.0    1.4
  LS-21_PMP-2              0.00           0      0.00      0.00      0.00     0.000      0.00    0.0    0.0
  LS-22_PMP-1              1.31          63      0.00    630.71    631.79     0.012      0.72    0.0   99.2
  LS-22_PMP-2              0.00           0      0.00      0.00      0.00     0.000      0.00    0.0    0.0
  LS-23_PMP-1              1.00          57      0.00    393.81    760.85     0.006      0.76    0.0    0.5
  LS-23_PMP-2              0.00           0      0.00      0.00      0.00     0.000      0.00    0.0    0.0
  LS-24_PMP-1             14.93         412      0.00    314.86    517.74     0.068      7.88    0.0    0.4
  LS-24_PMP-2              0.01           1      0.00    428.19    517.74     0.000      0.00    0.0   38.6
  LS-25_PMP-1              5.62          90      0.00    358.34    576.62     0.029      4.16    0.0    0.2
  LS-25_PMP-2              0.01           1      0.00    570.56    576.62     0.000      0.00    0.0   87.3
  LS-26_PMP-1              1.43          10      0.00    296.53    526.08     0.006      0.58    0.0    8.1
  LS-26_PMP-2              0.00           1      0.00    526.08    526.08     0.000      0.00    0.0  100.0
  LS-27_PMP-1              6.16          84      0.00    322.30    763.41     0.028      4.39    0.0    0.1
  LS-27_PMP-2              0.02           1      0.00    503.11    763.41     0.000      0.01    0.0   22.2
  LS-28_PMP-1              0.02           1      0.00    492.27    733.58     0.000      0.01    0.0   22.2
  LS-28_PMP-2              0.02           1      0.00    492.27    733.58     0.000      0.01    0.0   22.2
  LS-29_PMP-1              2.02          10      0.00    313.32    762.37     0.009      1.41    0.0    0.2
  LS-29_PMP-2              0.00           0      0.00      0.00      0.00     0.000      0.00    0.0    0.0
  LS-30_PMP-1              6.65          60      0.00    347.74    514.81     0.033      3.53    0.0    5.2
  LS-30_PMP-2              0.00           0      0.00      0.00      0.00     0.000      0.00    0.0    0.0
  LS-31_PMP-1              0.40          12      0.00    660.12    685.47     0.004      0.51    0.0   49.7
  LS-31_PMP-2              0.00           0      0.00      0.00      0.00     0.000      0.00    0.0    0.0
  LS-32_PMP-1             23.19         101      0.00   1091.88   1883.04     0.365    135.80    0.0   23.3
  LS-32_PMP-2              0.00           0      0.00      0.00      0.00     0.000      0.00    0.0    0.0
  LS-33_PMP-1              0.02           1      0.00    291.76    355.49     0.000      0.00    0.0   34.6
  LS-33_PMP-2              0.02           1      0.00    291.76    355.49     0.000      0.00    0.0   34.6
  LS-34_PMP-1             17.05         167      0.00    750.24   1795.72     0.185     44.58    0.0    0.1
  LS-34_PMP-2              0.01           1      0.00   1716.84   2409.89     0.000      0.03    0.0   34.4
  LS-35_PMP-1              7.19          22      0.00    132.17    183.42     0.014      1.81    0.0    0.0
  LS-35_PMP-2              0.00           0      0.00      0.00      0.00     0.000      0.00    0.0    0.0
  LS-38_PMP-1              3.79          62      0.00    233.63    432.54     0.013      0.97    0.0    0.2
  LS-38_PMP-2              0.02           1      0.00    314.48    432.54     0.000      0.00    0.0   26.2
  LS-39_PMP-1              9.10          53      0.00    726.77   1440.10     0.093     11.95    0.0    3.9
  LS-39_PMP-2              0.01           1      0.00   1440.10   1440.10     0.000      0.00    0.0  100.0
  LS-40_PMP-1              0.46          17      0.00    154.60    337.68     0.001      0.17    0.0    0.6
  LS-40_PMP-2              0.02           1      0.00    170.19    337.68     0.000      0.01    0.0   13.7
  LS-41_PMP-1              0.10           2      0.00    524.56    527.21     0.001      0.03    0.0   97.6
  LS-41_PMP-2              0.00           0      0.00      0.00      0.00     0.000      0.00    0.0    0.0
  LS-42_PMP-1              0.06           2      0.00    120.04    397.80     0.000      0.01    0.0    6.0
  LS-42_PMP-2              0.06           2      0.00    120.04    397.80     0.000      0.01    0.0    6.0
  LS-43_PMP-1              0.00           0      0.00      0.00      0.00     0.000      0.00    0.0    0.0
  LS-43_PMP-2              0.00           0      0.00      0.00      0.00     0.000      0.00    0.0    0.0
  LS-44_PMP-1              2.18          82      0.00    214.61    247.85     0.007      0.58    0.0    0.6
  LS-44_PMP-2              0.03           1      0.00    229.74    337.05     0.000      0.01    0.0   23.2
  LS-45_PMP-1              1.19         117      0.00    813.47    861.15     0.014      1.10    0.0   33.5
  LS-45_PMP-2              0.01           1      0.00    861.15    861.15     0.000      0.00    0.0  100.0
  LS-46_PMP-1              6.37         101      0.00     92.32    463.03     0.008      0.74    0.0    0.0
  LS-46_PMP-2              0.09           1      0.00    136.62    463.03     0.000      0.01    0.0    2.7
  LS-47_PMP-1             21.72          86      0.00     65.07    432.56     0.020      1.99    0.0    0.0
  LS-47_PMP-2              0.09           2      0.00     98.80    432.56     0.000      0.01    0.0    2.8
  LS-49_PMP-1              8.46          31      0.00     78.71    367.84     0.009      0.55    0.0    0.5
  LS-49_PMP-2              0.03           1      0.00    265.99    367.84     0.000      0.00    0.0   22.1
  LS-50_PMP-1              2.99          25      0.00    313.75    480.03     0.013      1.10    0.0    1.5
  LS-50_PMP-2              0.07           1      0.00    443.99    480.03     0.000      0.02    0.0   65.9
  LS-51_PMP-1             16.44          61      0.00    102.04    405.86     0.024      2.16    0.0    0.0
  LS-51_PMP-2              0.03           1      0.00    230.36    405.86     0.000      0.01    0.0   10.6
  LS-53_PMP-1              5.39         125      0.00    624.55   1024.76     0.049      8.91    0.0    0.0
  LS-53_PMP-2              0.01           1      0.00    561.54   1024.76     0.000      0.01    0.0   16.7
  LS-54_PMP-1              2.74         103      0.00    361.51    687.70     0.014      3.07    0.0    0.2
  LS-54_PMP-2              0.01           1      0.00    552.60    687.70     0.000      0.01    0.0   29.7
  LS-55_PMP-1              1.84          31      0.00    557.38    687.68     0.015      2.04    0.0   21.3
  LS-55_PMP-2              0.02           1      0.00    687.68    687.68     0.000      0.00    0.0  100.0
  LS-56_PMP-1              6.73          72      0.00    104.84    460.40     0.010      1.10    0.0    0.0
  LS-56_PMP-2              0.05           1      0.00    144.65    460.40     0.000      0.01    0.0    4.3
  LS-57_PMP-1             15.47          71      0.00   1045.52   1899.78     0.233     41.16    0.0   99.9
  LS-57_PMP-2              0.00           0      0.00      0.00      0.00     0.000      0.00    0.0    0.0
  LS-57_PMP-3              0.00           0      0.00      0.00      0.00     0.000      0.00    0.0    0.0
  LS-58_PMP-1              1.52          37      0.00    502.63    685.00     0.011      1.80    0.0    4.6
  LS-58_PMP-2              0.01           1      0.00    685.00    685.00     0.000      0.00    0.0  100.0
  LS-59_PMP-1              3.60          61      0.00     58.36     60.00     0.003      0.31    0.0   60.3
  LS-59_PMP-2              0.06           1      0.00     57.83     60.00     0.000      0.00    0.0   72.0
  LS-60_PMP-1             14.35          38      0.00     48.96     55.31     0.010      1.10    0.0    0.1
  LS-60_PMP-2              0.00           0      0.00      0.00      0.00     0.000      0.00    0.0    0.0
  LS-61_PMP-1             10.00         170      0.00    277.68    527.83     0.041      8.09    0.0    9.0
  LS-61_PMP-2              0.02           1      0.00    502.57    527.83     0.000      0.01    0.0   73.9
  LS-62_PMP-1              4.10          13      0.00     50.23    102.11     0.003      0.84    0.0    0.2
  LS-62_PMP-2              0.23           1      0.00     45.56    102.11     0.000      0.03    0.0    3.2
  LS-63_PMP-1              8.89         107      0.00    253.39    847.81     0.032      7.18    0.0    0.0
  LS-63_PMP-2              0.01           1      0.00    586.49    847.81     0.000      0.01    0.0   25.6
  LS-64_PMP-1              0.32           5      0.00     79.69     82.31     0.000      0.02    0.0   42.9
  LS-64_PMP-2              0.04           1      0.00     81.97     82.31     0.000      0.00    0.0   96.2
  LS-65_PMP-1              7.94          50      0.00    361.69    731.59     0.041     13.04    0.0    0.7
  LS-65_PMP-2              0.01           1      0.00    606.97    731.59     0.000      0.02    0.0   33.2
  LS-67_PMP-1              0.07           1      0.00    117.76    432.60     0.000      0.01    0.0    3.2
  LS-67_PMP-2              0.07           1      0.00    117.76    432.60     0.000      0.01    0.0    3.2
  LS-68_PMP-1             12.65          49      0.00    207.18    550.67     0.037      4.46    0.0    1.4
  LS-68_PMP-2              0.02           1      0.00    408.43    550.67     0.000      0.01    0.0   27.6
  LS-69_PMP-1              8.48          71      0.00    243.60    535.23     0.030      3.31    0.0    1.1
  LS-69_PMP-2              0.02           1      0.00    379.23    535.23     0.000      0.01    0.0   25.7
  LS-70_PMP-1              2.34          13      0.00    235.72    431.90     0.008      0.59    0.0    0.4
  LS-70_PMP-2              0.02           1      0.00    373.72    431.90     0.000      0.00    0.0   46.9
  LS-71_PMP-1             20.35         106      0.00     71.87    473.07     0.021      2.37    0.0    0.0
  LS-71_PMP-2              0.07           1      0.00    126.40    473.07     0.000      0.01    0.0    4.5
  LS-72_PMP-1              1.80          25      0.00    151.64    336.89     0.004      0.64    0.0    0.7
  LS-72_PMP-2              0.02           1      0.00    311.30    336.89     0.000      0.01    0.0   33.2
  LS-73_PMP-1              5.03          10      0.00     66.88    120.14     0.005      1.55    0.0   21.0
  LS-73_PMP-2              0.06           1      0.00    118.18    120.14     0.000      0.02    0.0   72.3
  LS-74_PMP-1              5.63          18      0.00     75.95     93.52     0.006      0.65    0.0    4.0
  LS-74_PMP-2              0.08           1      0.00     93.09     93.52     0.000      0.00    0.0   97.2
  LS-75_PMP-1              0.77           7      0.00    195.48    547.86     0.002      0.26    0.0    0.4
  LS-75_PMP-2              0.02           1      0.00    281.04    547.86     0.000      0.01    0.0   15.3
  LS-76_PMP-1              7.31          48      0.00    222.71    623.07     0.023      2.24    0.0    0.1
  LS-76_PMP-2              0.05           1      0.00    457.31    623.07     0.000      0.02    0.0    8.4
  LS-77_PMP-1              8.54          27      0.00    103.73    436.68     0.013      1.61    0.0    0.0
  LS-77_PMP-2              0.05           1      0.00    156.96    436.68     0.000      0.01    0.0    4.9
  LS-78_PMP-1              2.50           6      0.00    166.62    576.01     0.006      1.13    0.0    0.2
  LS-78_PMP-2              0.02           1      0.00    427.42    576.01     0.000      0.01    0.0   28.7
  LS-79_PMP-1              0.30           5      0.00    254.83    494.58     0.001      0.09    0.0    2.1
  LS-79_PMP-2              0.02           1      0.00    411.97    494.58     0.000      0.01    0.0   33.3
  LS-81_PMP-1              9.56          44      0.00     73.87    389.92     0.010      0.70    0.0    0.0
  LS-81_PMP-2              0.11           1      0.00     95.49    389.92     0.000      0.01    0.0    2.8
  LS-82_PMP-1              0.46           9      0.00    374.09    704.05     0.003      0.96    0.0   24.6
  LS-82_PMP-2              0.24           1      0.00    256.75    704.05     0.001      0.35    0.0    4.8
  LS-83_PMP-1              6.03         121      0.00    367.15    491.57     0.031      3.16    0.0    5.8
  LS-83_PMP-2              0.11           1      0.00    475.90    491.57     0.001      0.04    0.0   41.2
  LS-84_PMP-1              2.20           3      0.00     69.04    499.30     0.002      0.24    0.0    0.1
  LS-84_PMP-2              1.25           2      0.00     65.46    499.30     0.001      0.11    0.0    0.2
  LS-86_PMP-1              0.02           1      0.00    384.47    568.63     0.000      0.01    0.0   14.2
  LS-86_PMP-2              0.02           1      0.00    384.47    568.63     0.000      0.01    0.0   14.2
  LS-87_PMP-1              1.32          13      0.00    210.13    762.72     0.004      0.68    0.0    0.2
  LS-87_PMP-2              0.02           1      0.00    437.92    762.72     0.000      0.01    0.0   13.3
  

  Analysis begun on:  Fri Mar  6 14:49:38 2026
  Analysis ended on:  Fri Mar  6 14:49:49 2026
  Total elapsed time: 00:00:11