
  EPA STORM WATER MANAGEMENT MODEL - VERSION 5.2 (Build 5.2.4)
  ------------------------------------------------------------

  Charlottesville  Virginia Stormwater Study 
  2-YR SCS DESIGN STORM w/ Current Land Use (2007) 
  Charlottesville Virginia Stormwater Study 
  WARNING 02: maximum depth increased for Node 1224
  
  ****************
  Analysis Options
  ****************
  Flow Units ............... CFS
  Process Models:
    Rainfall/Runoff ........ YES
    RDII ................... NO
    Snowmelt ............... NO
    Groundwater ............ NO
    Flow Routing ........... YES
    Ponding Allowed ........ YES
    Water Quality .......... NO
  Infiltration Method ...... GREEN_AMPT
  Flow Routing Method ...... DYNWAVE
  Surcharge Method ......... EXTRAN
  Starting Date ............ 01/30/2007 00:00:00
  Ending Date .............. 01/31/2007 01:00:00
  Antecedent Dry Days ...... 0.0
  Report Time Step ......... 00:03:00
  Wet Time Step ............ 00:00:06
  Dry Time Step ............ 02:00:00
  Routing Time Step ........ 1.00 sec
  Variable Time Step ....... YES
  Maximum Trials ........... 8
  Number of Threads ........ 1
  Head Tolerance ........... 0.005000 ft
  
  
  **************************        Volume         Depth
  Runoff Quantity Continuity     acre-feet        inches
  **************************     ---------       -------
  Total Precipitation ......      1178.297         3.680
  Evaporation Loss .........         0.000         0.000
  Infiltration Loss ........       786.577         2.457
  Surface Runoff ...........       385.061         1.203
  Final Storage ............         6.660         0.021
  Continuity Error (%) .....        -0.000
  
  
  **************************        Volume        Volume
  Flow Routing Continuity        acre-feet      10^6 gal
  **************************     ---------     ---------
  Dry Weather Inflow .......         0.000         0.000
  Wet Weather Inflow .......       385.058       125.477
  Groundwater Inflow .......         0.000         0.000
  RDII Inflow ..............         0.000         0.000
  External Inflow ..........         0.000         0.000
  External Outflow .........       377.999       123.177
  Flooding Loss ............         0.000         0.000
  Evaporation Loss .........         0.000         0.000
  Exfiltration Loss ........         0.000         0.000
  Initial Stored Volume ....         1.339         0.436
  Final Stored Volume ......         8.627         2.811
  Continuity Error (%) .....        -0.059
  
  
  *************************
  Highest Continuity Errors
  *************************
  Node 1123 (1.52%)
  
  
  ***************************
  Time-Step Critical Elements
  ***************************
  Link 40231 (1.11%)
  
  
  ********************************
  Highest Flow Instability Indexes
  ********************************
  Link 42611 (119)
  Link 43191 (113)
  Link 43081 (104)
  Link 42121 (102)
  Link 41401 (98)
  
  
  *********************************
  Most Frequent Nonconverging Nodes
  *********************************
  Node 2892 (1.25%)
  Node 1055 (0.66%)
  Node 1061 (0.47%)
  Node 1057 (0.40%)
  Node 1065 (0.22%)
  
  
  *************************
  Routing Time Step Summary
  *************************
  Minimum Time Step           :     0.50 sec
  Average Time Step           :     1.00 sec
  Maximum Time Step           :     1.00 sec
  % of Time in Steady State   :     0.00
  Average Iterations per Step :     2.17
  % of Steps Not Converging   :     1.25
  Time Step Frequencies       :
      1.000 -  0.871 sec      :    99.94 %
      0.871 -  0.758 sec      :     0.01 %
      0.758 -  0.660 sec      :     0.01 %
      0.660 -  0.574 sec      :     0.01 %
      0.574 -  0.500 sec      :     0.02 %
  
  
  ***************************
  Subcatchment Runoff Summary
  ***************************
  
  ------------------------------------------------------------------------------------------------------------------------------
                            Total      Total      Total      Total     Imperv       Perv      Total       Total     Peak  Runoff
                           Precip      Runon       Evap      Infil     Runoff     Runoff     Runoff      Runoff   Runoff   Coeff
  Subcatchment                 in         in         in         in         in         in         in    10^6 gal      CFS
  ------------------------------------------------------------------------------------------------------------------------------
  70151                      3.68       0.00       0.00       2.46       0.49       0.72       1.21        1.90    61.73   0.329
  70191                      3.68       0.00       0.00       2.97       0.28       0.43       0.71        1.13    42.81   0.192
  70231                      3.68       0.00       0.00       0.80       2.25       0.58       2.83        0.92    42.78   0.770
  70291                      3.68       0.00       0.00       0.93       1.72       0.99       2.71        0.52    21.51   0.736
  70311                      3.68       0.00       0.00       0.93       2.27       0.42       2.69        0.59    28.35   0.732
  70531                      3.68       0.00       0.00       2.23       0.94       0.49       1.43        0.99    36.82   0.388
  70571                      3.68       0.00       0.00       1.39       1.97       0.28       2.25        1.65    79.50   0.611
  70731                      3.68       0.00       0.00       1.59       1.81       0.23       2.04        2.25    99.08   0.555
  70751                      3.68       0.00       0.00       1.37       1.65       0.63       2.27        1.20    50.21   0.617
  70771                      3.68       0.00       0.00       1.03       1.49       1.12       2.61        0.42    18.61   0.710
  70851                      3.68       0.00       0.00       2.22       0.88       0.57       1.45        0.81    32.85   0.393
  70951                      3.68       0.00       0.00       1.27       1.05       1.34       2.39        1.47    54.35   0.650
  71051                      3.68       0.00       0.00       1.12       1.35       1.18       2.54        1.07    42.35   0.689
  71171                      3.68       0.00       0.00       2.82       0.67       0.18       0.85        1.15    54.61   0.231
  71191                      3.68       0.00       0.00       2.49       0.90       0.28       1.18        1.05    50.46   0.319
  71231                      3.68       0.00       0.00       1.57       1.77       0.30       2.07        0.90    42.90   0.563
  71251                      3.68       0.00       0.00       2.08       1.22       0.36       1.58        0.56    25.76   0.428
  71271                      3.68       0.00       0.00       1.00       2.36       0.27       2.63        0.86    42.87   0.715
  71341                      3.68       0.00       0.00       1.18       1.57       0.90       2.46        0.49    20.89   0.670
  71361                      3.68       0.00       0.00       0.78       2.01       0.84       2.86        0.58    26.78   0.777
  71391                      3.68       0.00       0.00       1.66       1.60       0.39       1.99        1.88    88.25   0.540
  71461                      3.68       0.00       0.00       1.41       1.40       0.84       2.24        1.20    47.50   0.609
  71491                      3.68       0.00       0.00       1.52       1.89       0.22       2.11        0.73    31.88   0.575
  71611                      3.68       0.00       0.00       1.56       1.51       0.58       2.08        0.84    37.16   0.566
  71651                      3.68       0.00       0.00       2.05       1.17       0.44       1.61        0.60    28.38   0.437
  71661                      3.68       0.00       0.00       1.62       1.82       0.19       2.01        1.95    81.23   0.546
  71771                      3.68       0.00       0.00       1.89       1.25       0.52       1.76        1.06    44.66   0.479
  71911                      3.68       0.00       0.00       2.79       0.69       0.19       0.87        1.30    59.73   0.237
  71981                      3.68       0.00       0.00       1.87       1.53       0.25       1.78        1.50    66.12   0.483
  71991                      3.68       0.00       0.00       2.05       1.08       0.53       1.60        0.83    34.30   0.436
  72021                      3.68       0.00       0.00       2.22       1.09       0.35       1.44        0.70    31.40   0.392
  72031                      3.68       0.00       0.00       0.75       2.69       0.18       2.87        1.21    58.09   0.780
  72051                      3.68       0.00       0.00       1.68       1.23       0.75       1.98        1.09    47.87   0.537
  72061                      3.68       0.00       0.00       1.07       2.34       0.22       2.56        1.48    69.58   0.695
  72071                      3.68       0.00       0.00       1.95       1.00       0.70       1.71        0.73    39.24   0.463
  72091                      3.68       0.00       0.00       0.74       2.68       0.20       2.88        2.31   118.33   0.783
  72121                      3.68       0.00       0.00       1.93       0.96       0.77       1.73        1.47    60.36   0.470
  72161                      3.68       0.00       0.00       2.70       0.57       0.40       0.97        0.77    29.40   0.263
  72191                      3.68       0.00       0.00       0.60       2.83       0.19       3.02        1.19    59.10   0.819
  72231                      3.68       0.00       0.00       0.68       2.74       0.20       2.94        2.01    96.54   0.799
  72241                      3.68       0.00       0.00       2.36       0.90       0.41       1.31        1.44    60.95   0.355
  72261                      3.68       0.00       0.00       3.17       0.35       0.15       0.50        2.33   106.25   0.137
  72311                      3.68       0.00       0.00       3.13       0.40       0.14       0.54        1.81    83.98   0.147
  72331                      3.68       0.00       0.00       2.95       0.48       0.24       0.72        0.38    18.98   0.197
  72371                      3.68       0.00       0.00       2.97       0.57       0.13       0.69        0.87    41.57   0.189
  72391                      3.68       0.00       0.00       1.64       1.46       0.55       2.01        1.29    60.02   0.545
  72411                      3.68       0.00       0.00       2.63       0.59       0.44       1.03        1.52    59.24   0.281
  72421                      3.68       0.00       0.00       2.99       0.49       0.19       0.68        0.27    12.39   0.184
  72551                      3.68       0.00       0.00       2.70       0.62       0.34       0.96        1.00    42.74   0.262
  72591                      3.68       0.00       0.00       2.47       0.78       0.41       1.19        0.69    30.30   0.324
  72631                      3.68       0.00       0.00       1.38       1.80       0.46       2.26        1.34    63.94   0.614
  72671                      3.68       0.00       0.00       2.15       1.17       0.34       1.51        0.95    43.16   0.409
  72731                      3.68       0.00       0.00       1.31       2.03       0.29       2.32        1.38    63.72   0.630
  72781                      3.68       0.00       0.00       1.84       1.34       0.46       1.81        1.86    80.22   0.491
  72901                      3.68       0.00       0.00       2.14       0.84       0.69       1.53        2.21    90.78   0.415
  72951                      3.68       0.00       0.00       2.07       1.09       0.50       1.59        1.77    88.55   0.432
  73001                      3.68       0.00       0.00       2.91       0.58       0.18       0.76        1.90    85.87   0.206
  73081                      3.68       0.00       0.00       1.84       1.45       0.36       1.80        1.72    82.48   0.490
  73121                      3.68       0.00       0.00       2.41       1.09       0.16       1.24        1.15    48.03   0.338
  73171                      3.68       0.00       0.00       1.12       2.24       0.28       2.52        1.06    54.49   0.684
  73181                      3.68       0.00       0.00       0.77       2.69       0.14       2.84        1.11    45.78   0.771
  73201                      3.68       0.00       0.00       1.34       2.07       0.22       2.29        1.32    58.24   0.622
  73211                      3.68       0.00       0.00       1.91       1.33       0.41       1.74        1.45    63.03   0.473
  73271                      3.68       0.00       0.00       2.25       0.92       0.49       1.41        1.39    58.25   0.382
  73301                      3.68       0.00       0.00       1.82       1.65       0.17       1.82        1.57    65.85   0.494
  73321                      3.68       0.00       0.00       0.80       2.63       0.18       2.82        1.11    52.18   0.765
  73341                      3.68       0.00       0.00       2.33       0.82       0.51       1.33        0.58    26.44   0.361
  73391                      3.68       0.00       0.00       1.96       1.09       0.61       1.70        0.81    45.51   0.463
  73401                      3.68       0.00       0.00       3.11       0.37       0.19       0.56        0.76    33.46   0.152
  73421                      3.68       0.00       0.00       0.69       2.71       0.22       2.93        1.23    64.58   0.797
  73461                      3.68       0.00       0.00       0.66       2.80       0.16       2.96        1.31    61.18   0.803
  73501                      3.68       0.00       0.00       2.92       0.64       0.11       0.75        3.21   144.78   0.204
  73531                      3.68       0.00       0.00       1.00       2.35       0.28       2.63        1.11    54.27   0.714
  73551                      3.68       0.00       0.00       0.97       2.40       0.26       2.66        1.00    48.35   0.723
  73571                      3.68       0.00       0.00       0.89       2.56       0.17       2.72        0.63    27.06   0.740
  73601                      3.68       0.00       0.00       3.03       0.59       0.05       0.64        8.55   346.76   0.173
  73602                      3.68       0.00       0.00       2.90       0.67       0.09       0.76        8.03   334.61   0.208
  73631                      3.68       0.00       0.00       2.57       0.63       0.46       1.09        2.09    95.25   0.297
  73661                      3.68       0.00       0.00       2.47       0.78       0.42       1.20        0.61    26.68   0.325
  73671                      3.68       0.00       0.00       2.25       0.99       0.42       1.41        0.77    35.79   0.383
  73691                      3.68       0.00       0.00       2.20       1.04       0.42       1.46        0.70    32.52   0.396
  73751                      3.68       0.00       0.00       2.38       0.91       0.37       1.28        1.70    75.02   0.347
  73811                      3.68       0.00       0.00       2.21       1.07       0.37       1.45        1.28    58.36   0.393
  73841                      3.68       0.00       0.00       2.27       0.92       0.46       1.39        1.14    53.82   0.377
  73871                      3.68       0.00       0.00       2.34       0.89       0.43       1.32        0.87    39.47   0.359
  73911                      3.68       0.00       0.00       2.44       0.77       0.45       1.22        1.23    55.39   0.332
  73931                      3.68       0.00       0.00       2.65       0.63       0.39       1.02        0.79    33.66   0.277
  73951                      3.68       0.00       0.00       2.06       1.18       0.42       1.59        0.70    33.68   0.433
  73971                      3.68       0.00       0.00       2.16       1.15       0.35       1.50        0.77    35.11   0.407
  73991                      3.68       0.00       0.00       2.16       1.09       0.41       1.50        0.99    46.13   0.407
  74081                      3.68       0.00       0.00       3.00       0.49       0.17       0.66        1.51    64.28   0.181
  74101                      3.68       0.00       0.00       2.56       0.71       0.39       1.11        1.18    49.45   0.301
  74151                      3.68       0.00       0.00       3.16       0.34       0.18       0.51        1.72    73.20   0.139
  
  
  ******************
  Node Depth Summary
  ******************
  
  ---------------------------------------------------------------------------------
                                 Average  Maximum  Maximum  Time of Max    Reported
                                   Depth    Depth      HGL   Occurrence   Max Depth
  Node                 Type         Feet     Feet     Feet  days hr:min        Feet
  ---------------------------------------------------------------------------------
  1015                 JUNCTION     0.24     1.75   567.85     0  12:06        1.74
  1019                 JUNCTION     0.08     0.73   580.73     0  12:06        0.72
  1025                 JUNCTION     0.29     1.74   548.67     0  12:08        1.74
  1029                 JUNCTION     0.13     0.95   561.95     0  12:00        0.95
  1031                 JUNCTION     0.52     6.21   543.01     0  11:59        5.30
  1035                 JUNCTION     0.40     2.23   537.23     0  12:06        2.23
  1041                 JUNCTION     0.30     1.93   529.93     0  12:06        1.92
  1043                 JUNCTION     0.47     3.47   523.77     0  12:08        3.47
  1047                 JUNCTION     0.39     2.53   521.03     0  12:09        2.53
  1049                 JUNCTION     0.36     3.65   519.65     0  12:07        3.42
  1057                 JUNCTION     0.67    12.45   521.95     0  11:56        8.23
  1061                 JUNCTION     0.99    10.65   518.74     0  11:56        8.70
  1065                 JUNCTION     0.57     6.70   513.00     0  12:01        6.70
  1073                 JUNCTION     0.96    12.09   504.09     0  12:12       12.09
  1075                 JUNCTION     0.43    12.02   517.02     0  12:07       12.02
  1077                 JUNCTION     0.28     2.00   495.90     0  12:00        2.00
  1079                 JUNCTION     1.40     6.50   491.52     0  12:06        6.47
  1085                 JUNCTION     0.16     1.55   559.55     0  12:00        1.55
  1087                 JUNCTION     0.12     0.96   552.96     0  12:00        0.96
  1089                 JUNCTION     0.17     1.52   533.52     0  12:06        1.52
  1091                 JUNCTION     0.15     1.12   530.12     0  12:07        1.11
  1095                 JUNCTION     0.46     3.11   522.11     0  12:27        3.11
  1097                 JUNCTION     0.60     3.17   520.17     0  13:29        3.17
  1099                 JUNCTION     0.50     1.79   510.79     0  12:11        1.79
  1103                 JUNCTION     0.19     0.85   507.85     0  14:53        0.85
  1105                 JUNCTION     0.30     1.44   505.44     0  12:00        1.44
  1117                 JUNCTION     0.26     5.51   571.01     0  12:06        5.51
  1119                 JUNCTION     0.30     3.11   536.01     0  12:06        3.11
  1123                 JUNCTION     3.82     9.27   527.47     0  11:57        9.22
  1127                 JUNCTION     0.39     3.32   512.82     0  12:05        3.28
  1129                 JUNCTION     0.24     2.42   507.42     0  12:00        2.40
  1130                 JUNCTION     0.07     3.50   500.50     0  12:13        2.92
  1136                 JUNCTION     0.50     3.75   491.59     0  12:06        3.75
  1139                 JUNCTION     2.23     7.16   491.34     0  12:06        7.16
  1140                 JUNCTION     2.24     5.60   489.70     0  12:06        5.59
  1142                 JUNCTION     1.29     6.15   486.15     0  12:19        6.15
  1144                 JUNCTION     0.80     3.58   483.08     0  12:19        3.58
  1145                 JUNCTION     0.86     4.89   483.89     0  12:20        4.89
  1146                 JUNCTION     0.95     4.44   481.44     0  12:06        4.44
  1149                 JUNCTION     0.20     1.60   508.60     0  12:00        1.60
  1151                 JUNCTION     0.13     0.81   502.41     0  12:00        0.80
  1158                 JUNCTION     0.00     0.00   496.30     0  00:00        0.00
  1159                 JUNCTION     0.00     0.00   496.00     0  00:00        0.00
  1161                 JUNCTION     0.20     1.43   486.43     0  12:00        1.43
  1164                 JUNCTION     0.31     2.14   478.64     0  12:00        2.13
  1165                 JUNCTION     0.38     2.65   477.65     0  12:00        2.64
  1166                 JUNCTION     1.00     4.87   475.62     0  12:00        4.86
  1177                 JUNCTION     0.31     7.20   486.40     0  12:00        7.19
  1191                 JUNCTION     0.18     1.72   501.72     0  12:00        1.72
  1193                 JUNCTION     0.21     1.43   492.43     0  12:00        1.42
  1195                 JUNCTION     0.13     1.22   481.22     0  12:02        1.22
  1198                 JUNCTION     0.59     5.39   468.96     0  12:06        5.38
  1199                 JUNCTION     0.15     1.07   470.47     0  12:00        1.07
  1201                 JUNCTION     0.37     2.88   462.88     0  12:06        2.88
  1202                 JUNCTION     0.16     1.09   489.09     0  12:00        1.09
  1203                 JUNCTION     0.42     3.38   458.88     0  12:06        3.38
  1205                 JUNCTION     0.13     1.11   495.11     0  12:01        1.11
  1206                 JUNCTION     0.64    12.52   488.02     0  12:06       12.52
  1207                 JUNCTION     0.59     3.96   467.96     0  12:11        3.96
  1209                 JUNCTION     0.43     3.67   455.33     0  12:06        3.67
  1212                 JUNCTION     0.14     1.24   485.24     0  12:06        1.24
  1216                 JUNCTION     0.41     3.65   451.65     0  12:29        3.65
  1219                 JUNCTION     0.37     3.03   446.23     0  12:06        3.02
  1223                 JUNCTION     0.77     5.94   435.94     0  12:06        5.92
  1224                 JUNCTION     1.63     7.56   433.82     0  12:05        7.56
  1226                 JUNCTION     0.34     3.22   517.22     0  12:00        3.21
  1227                 JUNCTION     0.11     1.08   511.08     0  12:00        1.07
  1228                 JUNCTION     0.08     0.95   505.95     0  12:00        0.94
  1229                 JUNCTION     0.08     0.90   500.90     0  12:01        0.87
  1231                 JUNCTION     0.10     1.12   496.12     0  12:03        1.11
  1233                 JUNCTION     0.15     1.13   506.13     0  12:06        1.12
  1235                 JUNCTION     0.33     2.57   492.57     0  12:04        2.54
  1238                 JUNCTION     0.08     0.80   480.80     0  12:01        0.78
  1240                 JUNCTION     0.26     2.97   471.97     0  12:08        2.96
  1241                 JUNCTION     0.68     4.28   470.28     0  12:08        4.27
  1242                 JUNCTION     0.09     0.64   493.64     0  12:00        0.63
  1243                 JUNCTION     0.22     2.56   453.76     0  12:10        2.54
  1245                 JUNCTION     0.40     3.17   453.33     0  12:10        3.15
  1246                 JUNCTION     0.45     4.01   453.01     0  12:10        3.98
  1247                 JUNCTION     0.53     3.58   452.08     0  12:10        3.57
  1249                 JUNCTION     0.25     3.51   451.01     0  12:10        3.50
  1250                 JUNCTION     0.48     3.72   447.72     0  12:12        3.72
  1255                 JUNCTION     0.13     1.00   486.00     0  12:00        0.99
  1259                 JUNCTION     0.23     1.50   455.50     0  12:06        1.50
  1261                 JUNCTION     0.18     1.69   445.69     0  12:06        1.67
  1263                 JUNCTION     0.36     3.10   438.10     0  12:11        3.10
  1267                 JUNCTION     0.17     1.16   457.16     0  12:00        1.15
  1271                 JUNCTION     0.79     5.15   434.15     0  12:13        5.11
  1273                 JUNCTION     0.30     3.03   430.03     0  12:09        3.02
  1275                 JUNCTION     0.40     4.63   429.63     0  12:10        4.55
  1278                 JUNCTION     0.79     8.53   429.53     0  12:10        8.45
  1279                 JUNCTION     1.22     7.82   428.32     0  12:10        7.76
  1280                 JUNCTION     0.62     7.76   427.61     0  12:10        7.68
  1283                 JUNCTION     1.26     7.56   426.26     0  12:10        7.51
  1290                 JUNCTION     0.37     3.07   430.07     0  12:13        3.07
  1291                 JUNCTION     0.17     1.09   425.09     0  12:13        1.09
  1292                 JUNCTION     1.83     6.71   423.71     0  12:08        6.69
  1295                 JUNCTION     0.51     4.17   418.17     0  12:17        4.17
  1296                 JUNCTION     0.82     5.96   417.96     0  12:16        5.95
  1300                 JUNCTION     0.23     1.70   474.70     0  12:00        1.70
  1302                 JUNCTION     0.42     3.23   463.73     0  12:00        3.19
  1303                 JUNCTION     0.39     3.54   463.54     0  12:00        3.49
  1304                 JUNCTION     0.35     2.64   462.14     0  12:00        2.62
  1305                 JUNCTION     0.28     2.00   461.00     0  12:01        1.97
  1308                 JUNCTION     0.23     2.19   452.19     0  12:01        2.17
  1312                 JUNCTION     0.49     4.39   444.39     0  12:06        4.33
  1315                 JUNCTION     0.31    12.70   449.85     0  11:59        6.40
  1317                 JUNCTION     0.15     1.66   432.31     0  12:00        1.64
  1318                 JUNCTION     0.17     1.11   441.21     0  12:00        1.10
  1319                 JUNCTION     0.30     2.61   422.61     0  12:04        2.60
  1320                 JUNCTION     1.18     7.86   416.86     0  12:14        7.86
  1321                 JUNCTION     2.49     5.94   412.94     0  12:14        5.94
  1324                 JUNCTION     1.16     6.61   412.61     0  12:42        6.17
  1327                 JUNCTION     0.29     2.51   422.51     0  12:00        2.50
  1328                 JUNCTION     0.23     1.70   417.70     0  12:00        1.69
  1330                 JUNCTION     0.90     6.35   408.91     0  12:17        6.35
  1332                 JUNCTION     0.14     1.24   413.24     0  12:00        1.24
  1334                 JUNCTION     0.37     4.02   460.02     0  12:15        4.02
  1335                 JUNCTION     0.10     0.62   452.62     0  12:16        0.62
  1339                 JUNCTION     1.64     7.06   406.06     0  12:22        7.06
  1340                 JUNCTION     0.16     1.11   441.11     0  12:00        1.11
  1342                 JUNCTION     0.29     2.62   419.62     0  12:00        2.61
  1344                 JUNCTION     0.26     1.94   416.24     0  12:00        1.92
  1347                 JUNCTION     0.29     2.25   404.25     0  12:06        2.25
  1348                 JUNCTION     0.93     6.29   402.29     0  12:27        6.29
  1350                 JUNCTION     0.49     9.69   439.69     0  11:56        6.25
  1351                 JUNCTION     0.22     1.90   423.90     0  12:00        1.90
  1353                 JUNCTION     0.15     1.52   413.52     0  12:00        1.50
  1355                 JUNCTION     0.44     3.52   407.52     0  12:02        3.51
  1357                 JUNCTION     0.14     0.96   420.96     0  12:00        0.96
  1358                 JUNCTION     2.00     6.86   399.36     0  12:35        6.86
  1360                 JUNCTION     1.07     7.57   402.57     0  12:01        7.50
  1363                 JUNCTION     1.31     6.89   394.89     0  12:41        6.89
  1366                 JUNCTION     0.14     1.00   494.10     0  12:00        0.99
  1367                 JUNCTION     0.21     1.72   434.92     0  12:00        1.71
  1368                 JUNCTION     0.16     1.14   420.14     0  12:00        1.13
  1369                 JUNCTION     0.20     1.42   406.42     0  12:00        1.41
  1370                 JUNCTION     0.17     1.57   388.91     0  12:00        1.56
  1375                 JUNCTION     1.33     6.34   384.78     0  12:44        6.34
  1377                 JUNCTION     1.67     7.23   383.55     0  12:46        7.23
  1381                 JUNCTION     1.15     5.26   377.55     0  12:53        5.26
  1385                 JUNCTION     0.13     1.33   408.33     0  12:00        1.31
  1387                 JUNCTION     0.26     2.51   384.51     0  12:01        2.50
  1388                 JUNCTION     0.16     1.13   378.63     0  12:06        1.12
  1391                 JUNCTION     1.70     6.52   376.52     0  13:03        6.51
  1395                 JUNCTION     0.15     1.18   418.18     0  12:01        1.18
  1397                 JUNCTION     0.16     1.15   421.65     0  12:00        1.15
  1399                 JUNCTION     0.24     1.81   391.81     0  12:02        1.81
  1401                 JUNCTION     0.25     1.67   380.67     0  12:06        1.67
  1402                 JUNCTION     0.26     2.45   378.45     0  12:05        2.43
  1405                 JUNCTION     1.61     7.37   376.37     0  13:04        7.37
  1408                 JUNCTION     0.17     1.33   381.33     0  12:00        1.31
  1410                 JUNCTION     3.42     8.94   375.94     0  13:05        8.94
  1411                 JUNCTION     1.90     7.89   371.79     0  13:06        7.89
  1413                 JUNCTION     2.49     7.95   365.95     0  13:08        7.95
  1415                 JUNCTION     0.33     1.54   357.54     0  13:08        1.54
  2892                 OUTFALL      0.31     1.52   101.52     0  13:08        1.52
  1023                 STORAGE      0.42     4.07   551.70     0  12:08        4.06
  1053                 STORAGE      0.30     3.28   518.33     0  12:48        3.28
  1125                 STORAGE      0.34     2.45   524.45     0  12:00        2.44
  1134                 STORAGE      0.74     6.67   499.51     0  12:13        6.65
  1237                 STORAGE      0.19     1.30   491.30     0  12:00        1.29
  1239                 STORAGE      0.26     3.61   475.61     0  12:06        3.57
  1346                 STORAGE      0.54     4.58   407.37     0  12:06        4.58
  1384                 STORAGE      0.18     1.32   415.32     0  11:58        1.32
  1393                 STORAGE      0.15     1.08   441.08     0  12:00        1.07
  1055                 STORAGE      0.89     6.76   518.31     0  12:49        6.76
  
  
  *******************
  Node Inflow Summary
  *******************
  
  -------------------------------------------------------------------------------------------------
                                  Maximum  Maximum                  Lateral       Total        Flow
                                  Lateral    Total  Time of Max      Inflow      Inflow     Balance
                                   Inflow   Inflow   Occurrence      Volume      Volume       Error
  Node                 Type           CFS      CFS  days hr:min    10^6 gal    10^6 gal     Percent
  -------------------------------------------------------------------------------------------------
  1015                 JUNCTION     61.73    61.73     0  12:06         1.9         1.9       0.006
  1019                 JUNCTION     42.81    42.81     0  12:06        1.13        1.13       0.038
  1025                 JUNCTION      0.00   102.71     0  12:08           0        3.95       0.000
  1029                 JUNCTION     21.51    21.51     0  12:00       0.517       0.517       0.001
  1031                 JUNCTION     28.35   142.10     0  12:06       0.594        5.06      -0.000
  1035                 JUNCTION      0.00   142.09     0  12:06           0        5.06      -0.007
  1041                 JUNCTION      0.00   141.13     0  12:06           0        5.06       0.200
  1043                 JUNCTION      0.00   149.87     0  12:06           0        5.05      -0.350
  1047                 JUNCTION      0.00    88.72     0  12:08           0        2.91       0.006
  1049                 JUNCTION      0.00    88.66     0  12:09           0        2.91       0.005
  1057                 JUNCTION     79.50   145.07     0  12:05        1.65        7.76       0.008
  1061                 JUNCTION      0.00   128.37     0  12:01           0        7.69       0.002
  1065                 JUNCTION      0.00   128.35     0  12:01           0        7.69       0.037
  1073                 JUNCTION     99.08   219.64     0  12:01        2.25        9.94       0.023
  1075                 JUNCTION     50.21    50.21     0  12:00         1.2         1.2      -0.006
  1077                 JUNCTION     18.61    54.03     0  11:59       0.421        1.63       0.010
  1079                 JUNCTION      0.00    53.04     0  12:00           0        1.63       0.203
  1085                 JUNCTION     32.85    32.85     0  12:00        0.81        0.81      -0.001
  1087                 JUNCTION      0.00    32.78     0  12:00           0        0.81      -0.025
  1089                 JUNCTION      0.00    32.22     0  12:00           0        0.81       0.052
  1091                 JUNCTION      0.00    29.36     0  12:06           0        0.81      -0.351
  1095                 JUNCTION     54.35    87.30     0  12:00        1.47        2.31      -0.046
  1097                 JUNCTION      0.00    32.92     0  12:13           0        2.31      -0.008
  1099                 JUNCTION      0.00    20.34     0  12:11           0        2.29       0.009
  1103                 JUNCTION      0.00    20.48     0  11:55           0        2.29       0.174
  1105                 JUNCTION     42.35    65.66     0  12:00        1.07        3.35      -0.101
  1117                 JUNCTION     54.61    54.61     0  12:00        1.15        1.15      -0.013
  1119                 JUNCTION     50.46    91.65     0  12:00        1.05         2.2      -0.091
  1123                 JUNCTION     42.90   118.94     0  11:57       0.897         3.1       1.542
  1127                 JUNCTION     42.87   183.68     0  12:00       0.864        4.47       0.006
  1129                 JUNCTION      0.00   184.02     0  12:00           0        4.47      -0.205
  1130                 JUNCTION      0.00   575.20     0  12:13           0        5.63       0.738
  1136                 JUNCTION     26.78   187.67     0  12:05       0.583        8.86       0.055
  1139                 JUNCTION     88.25   469.05     0  12:06        1.88        22.3       0.009
  1140                 JUNCTION      0.00   468.85     0  12:06           0        22.3       0.046
  1142                 JUNCTION      0.00   467.80     0  12:06           0        22.3      -0.006
  1144                 JUNCTION      0.00   388.08     0  12:19           0        22.3       0.009
  1145                 JUNCTION      0.00   388.08     0  12:19           0        22.3       0.005
  1146                 JUNCTION     47.50   422.71     0  12:06         1.2        23.5       0.014
  1149                 JUNCTION     31.88    31.88     0  12:00       0.729       0.729       0.002
  1151                 JUNCTION      0.00    31.70     0  12:00           0       0.729       0.089
  1158                 JUNCTION      0.00     0.00     0  00:00           0           0       0.000 gal
  1159                 JUNCTION      0.00     0.00     0  00:00           0           0       0.000 gal
  1161                 JUNCTION     37.16    37.16     0  12:00       0.838       0.838       0.002
  1164                 JUNCTION      0.00   459.07     0  12:00           0        24.3       0.010
  1165                 JUNCTION     28.38   486.40     0  12:00       0.604        24.9       0.016
  1166                 JUNCTION     81.23   640.80     0  12:00        1.95        28.7       0.075
  1177                 JUNCTION     44.66    44.66     0  12:00        1.06        1.06       0.001
  1191                 JUNCTION     59.73    59.73     0  12:00         1.3         1.3       0.015
  1193                 JUNCTION      0.00    58.80     0  12:00           0         1.3      -0.004
  1195                 JUNCTION      0.00    58.92     0  12:00           0         1.3      -0.796
  1198                 JUNCTION     66.12   771.86     0  12:01         1.5        31.4       0.098
  1199                 JUNCTION     34.30    34.30     0  12:00       0.826       0.826      -0.000
  1201                 JUNCTION      0.00   753.45     0  12:06           0        32.2       0.012
  1202                 JUNCTION     31.40    31.40     0  12:00       0.698       0.698      -0.001
  1203                 JUNCTION     58.09   800.77     0  12:06        1.21        33.4       0.015
  1205                 JUNCTION     47.87    47.87     0  12:00        1.09        1.09      -0.825
  1206                 JUNCTION     69.58   100.62     0  12:00        1.48        2.18       0.070
  1207                 JUNCTION     39.24    81.93     0  12:06       0.727        1.82       0.901
  1209                 JUNCTION    118.33  1014.22     0  12:06        2.31        39.7       0.029
  1212                 JUNCTION     60.36    60.36     0  12:00        1.47        1.47      -1.075
  1216                 JUNCTION     29.40    90.70     0  12:03       0.773        2.26       0.931
  1219                 JUNCTION     59.10  1057.56     0  12:06        1.19        40.9       0.040
  1223                 JUNCTION     96.54  1162.53     0  12:06        2.01        45.1       0.055
  1224                 JUNCTION     60.95  1203.61     0  12:06        1.44        46.6       0.041
  1226                 JUNCTION    106.25   106.25     0  12:00        2.33        2.33      -0.002
  1227                 JUNCTION      0.00   105.65     0  12:00           0        2.33       0.010
  1228                 JUNCTION      0.00   103.54     0  12:00           0        2.33       0.038
  1229                 JUNCTION      0.00   104.03     0  12:01           0        2.33       0.025
  1231                 JUNCTION     83.98   175.48     0  12:00        1.81        4.14       0.276
  1233                 JUNCTION     18.98    18.98     0  12:06       0.383       0.383       0.000
  1235                 JUNCTION      0.00   225.95     0  12:03           0        4.51      -0.084
  1238                 JUNCTION      0.00    39.47     0  12:00           0       0.873      -0.288
  1240                 JUNCTION      0.00   232.17     0  12:06           0        5.39       0.290
  1241                 JUNCTION     59.24   308.63     0  12:06        1.52        8.18       0.032
  1242                 JUNCTION     12.39    12.39     0  12:00        0.27        0.27       0.003
  1243                 JUNCTION      0.00   302.60     0  12:08           0        8.18       0.072
  1245                 JUNCTION      0.00   305.59     0  12:10           0        8.44       0.011
  1246                 JUNCTION      0.00   305.57     0  12:10           0        8.44       0.005
  1247                 JUNCTION      0.00   305.56     0  12:10           0        8.44       0.006
  1249                 JUNCTION      0.00   305.55     0  12:10           0        8.44       0.006
  1250                 JUNCTION      0.00   305.44     0  12:10           0        8.44       0.102
  1255                 JUNCTION     42.74    42.74     0  12:00           1           1      -0.048
  1259                 JUNCTION     30.30    69.12     0  12:00       0.691        1.69       0.091
  1261                 JUNCTION      0.00    65.42     0  12:06           0        1.69       0.200
  1263                 JUNCTION     63.94   382.63     0  12:10        1.34        11.5       0.102
  1267                 JUNCTION     43.16    43.16     0  12:00        0.95        0.95       0.302
  1271                 JUNCTION      0.00   435.91     0  12:11           0        12.4      -0.032
  1273                 JUNCTION     63.72   422.07     0  12:09        1.38        13.8       0.012
  1275                 JUNCTION      0.00   419.60     0  12:09           0        13.8       0.098
  1278                 JUNCTION     80.22  1685.74     0  12:07        1.86        62.2       0.031
  1279                 JUNCTION      0.00  1597.29     0  12:10           0        62.1       0.015
  1280                 JUNCTION      0.00  1596.69     0  12:10           0        62.1       0.006
  1283                 JUNCTION      0.00  1596.92     0  12:10           0        62.1      -0.054
  1290                 JUNCTION     90.78    90.78     0  12:00        2.21        2.21      -0.005
  1291                 JUNCTION      0.00    47.66     0  12:13           0        2.21      -0.005
  1292                 JUNCTION      0.00  1645.20     0  12:10           0        64.4      -0.208
  1295                 JUNCTION     88.55  1856.36     0  12:09        1.77        66.3       0.493
  1296                 JUNCTION      0.00  1551.49     0  12:17           0          66       0.019
  1300                 JUNCTION     85.87    85.87     0  12:00         1.9         1.9      -0.000
  1302                 JUNCTION      0.00    85.52     0  12:00           0         1.9       0.001
  1303                 JUNCTION      0.00    83.40     0  12:00           0         1.9       0.004
  1304                 JUNCTION      0.00    82.86     0  12:00           0         1.9       0.000
  1305                 JUNCTION      0.00    82.80     0  12:00           0         1.9       0.008
  1308                 JUNCTION     82.48   163.00     0  12:00        1.72        3.62       0.119
  1312                 JUNCTION     48.03   221.08     0  12:01        1.15        4.77      -0.022
  1315                 JUNCTION      0.00   192.07     0  11:59           0        4.77       0.005
  1317                 JUNCTION     54.49   229.44     0  12:00        1.06        5.83       0.073
  1318                 JUNCTION     45.78    45.78     0  12:00        1.11        1.11       0.004
  1319                 JUNCTION      0.00   275.16     0  12:01           0        6.94      -0.072
  1320                 JUNCTION     58.24  1778.70     0  12:13        1.32        74.2       0.051
  1321                 JUNCTION     63.03  1757.89     0  12:14        1.45        75.7      -0.036
  1324                 JUNCTION      0.00 14798.77     0  12:42           0        75.7      -0.038
  1327                 JUNCTION     58.25    58.25     0  12:00        1.39        1.39       0.000
  1328                 JUNCTION      0.00    57.88     0  12:00           0        1.39      -0.406
  1330                 JUNCTION     65.85  1806.42     0  12:15        1.57        78.6       0.003
  1332                 JUNCTION     52.18    52.18     0  12:00        1.11        1.11      -0.028
  1334                 JUNCTION     26.44    26.44     0  12:00       0.576       0.576      -0.056
  1335                 JUNCTION      0.00    12.65     0  12:15           0       0.576      -0.299
  1339                 JUNCTION     45.51  1819.91     0  12:18       0.809          80       0.112
  1340                 JUNCTION     33.46    33.46     0  12:00        0.76        0.76       0.027
  1342                 JUNCTION     64.58    97.18     0  12:00        1.23        1.99      -0.006
  1344                 JUNCTION      0.00    95.42     0  12:00           0        1.99       0.192
  1347                 JUNCTION      0.00   177.97     0  12:06           0         4.4      -0.042
  1348                 JUNCTION      0.00  1842.04     0  12:23           0        84.3      -0.050
  1350                 JUNCTION    144.78   144.78     0  12:00        3.21        3.21       0.007
  1351                 JUNCTION      0.00   144.77     0  12:00           0        3.21       0.013
  1353                 JUNCTION     54.27   196.71     0  12:00        1.11        4.31      -0.466
  1355                 JUNCTION     48.35   266.09     0  12:00           1        5.34       0.574
  1357                 JUNCTION     27.06    27.06     0  12:00       0.626       0.626       0.102
  1358                 JUNCTION      0.00  1871.69     0  12:29           0        90.3       0.490
  1360                 JUNCTION    681.37   681.37     0  12:00        16.6        16.6      -1.055
  1363                 JUNCTION     95.25  1996.28     0  12:36        2.09         109       0.201
  1366                 JUNCTION     26.68    26.68     0  12:00       0.606       0.606       0.003
  1367                 JUNCTION     35.79    61.79     0  12:00       0.772        1.38       0.002
  1368                 JUNCTION      0.00    60.40     0  12:00           0        1.38       0.003
  1369                 JUNCTION     32.52    91.81     0  12:00       0.702        2.08      -0.001
  1370                 JUNCTION      0.00    91.60     0  12:00           0        2.08      -0.045
  1375                 JUNCTION     75.02  1939.92     0  12:42         1.7         112       0.127
  1377                 JUNCTION      0.00  1932.10     0  12:44           0         112      -0.045
  1381                 JUNCTION     58.36  1931.43     0  12:47        1.28         113      -0.332
  1385                 JUNCTION      0.00    53.84     0  12:00           0        1.14       0.015
  1387                 JUNCTION     39.47    89.74     0  12:00       0.867        2.01       0.044
  1388                 JUNCTION      0.00    85.03     0  12:06           0           2      -0.863
  1391                 JUNCTION     55.39  1914.71     0  12:50        1.23         117       0.692
  1395                 JUNCTION     33.68    65.00     0  12:00       0.702        1.49      -0.056
  1397                 JUNCTION     35.11    35.11     0  12:00       0.769       0.769      -0.020
  1399                 JUNCTION     46.13   139.24     0  12:00       0.987        3.24       0.030
  1401                 JUNCTION      0.00   130.69     0  12:06           0        3.24       0.072
  1402                 JUNCTION      0.00   130.43     0  12:06           0        3.24      -0.033
  1405                 JUNCTION      0.00  1781.11     0  12:54           0         120       0.090
  1408                 JUNCTION     64.28    64.28     0  12:00        1.51        1.51      -0.846
  1410                 JUNCTION     49.45  1725.62     0  12:59        1.18         122       0.202
  1411                 JUNCTION      0.00  1698.08     0  13:05           0         122       0.040
  1413                 JUNCTION      0.00  1697.79     0  13:06           0         122       0.229
  1415                 JUNCTION     73.20  1705.66     0  13:08        1.72         123       0.063
  2892                 OUTFALL       0.00  1705.43     0  13:08           0         123       0.000
  1023                 STORAGE      42.78   137.56     0  12:06       0.919        3.95      -0.005
  1053                 STORAGE      36.82   120.84     0  12:15       0.993        3.24       0.317
  1125                 STORAGE      25.76   144.01     0  12:00       0.557        3.61       0.018
  1134                 STORAGE      20.89   900.26     0  12:05       0.486        9.43      -0.028
  1237                 STORAGE      41.57    41.57     0  12:00       0.874       0.874       0.004
  1239                 STORAGE      60.02    60.02     0  12:00        1.29        1.29       0.016
  1346                 STORAGE      61.18   207.15     0  12:00        1.31         4.4      -0.021
  1384                 STORAGE      53.82    53.82     0  12:00        1.14        1.14      -0.002
  1393                 STORAGE      33.66    33.66     0  12:00       0.786       0.786       0.001
  1055                 STORAGE       0.00    81.33     0  13:44           0        3.29       0.006
  
  
  **********************
  Node Surcharge Summary
  **********************
  
  Surcharging occurs when water rises above the top of the highest conduit.
  ---------------------------------------------------------------------
                                               Max. Height   Min. Depth
                                   Hours       Above Crown    Below Rim
  Node                 Type      Surcharged           Feet         Feet
  ---------------------------------------------------------------------
  1031                 JUNCTION        0.22          2.206       22.994
  1057                 JUNCTION        0.61          8.452        0.000
  1061                 JUNCTION        0.97          6.650        0.000
  1065                 JUNCTION        0.15          2.700        0.000
  1073                 JUNCTION        0.64          8.086        0.000
  1075                 JUNCTION        0.36         10.016        0.000
  1079                 JUNCTION        0.86          2.500        0.460
  1095                 JUNCTION        1.47          0.107        0.000
  1097                 JUNCTION        3.10          0.272        0.000
  1117                 JUNCTION        0.25          3.511        0.000
  1119                 JUNCTION        0.25          0.113        0.000
  1123                 JUNCTION        1.03          4.273        9.527
  1139                 JUNCTION        0.12          0.159        0.661
  1142                 JUNCTION        0.77          1.152        0.000
  1177                 JUNCTION        0.25          5.197        4.603
  1206                 JUNCTION        0.26          8.522        0.000
  1283                 JUNCTION        0.17          0.558        2.742
  1290                 JUNCTION        0.86          0.568        0.000
  1315                 JUNCTION        0.20          7.701        8.949
  1334                 JUNCTION        1.00          2.523        0.000
  1350                 JUNCTION        0.16          5.695       10.305
  1239                 STORAGE         0.32          1.614        8.386
  
  
  *********************
  Node Flooding Summary
  *********************
  
  Flooding refers to all water that overflows a node, whether it ponds or not.
  --------------------------------------------------------------------------
                                                             Total   Maximum
                                 Maximum   Time of Max       Flood    Ponded
                        Hours       Rate    Occurrence      Volume     Depth
  Node                 Flooded       CFS   days hr:min    10^6 gal      Feet
  --------------------------------------------------------------------------
  1061                    0.01      9.19      0  11:56       0.000     0.000
  1065                    0.06      8.97      0  12:01       0.003     0.000
  1073                    0.64     61.92      0  12:01       0.260     0.086
  1075                    0.36     15.11      0  12:00       0.047     0.016
  1095                    1.46     50.13      0  12:00       0.318     0.107
  1097                    3.10     12.78      0  12:06       0.514     0.172
  1117                    0.25     13.39      0  12:00       0.032     0.011
  1119                    0.25     16.29      0  12:00       0.040     0.013
  1142                    0.75     86.41      0  12:06       0.461     0.152
  1206                    0.26     25.76      0  12:00       0.067     0.022
  1290                    0.86     43.35      0  12:00       0.202     0.068
  1334                    0.91     13.80      0  12:00       0.068     0.023
  
  
  **********************
  Storage Volume Summary
  **********************
  
  ------------------------------------------------------------------------------------------------
                         Average    Avg   Evap  Exfil     Maximum    Max    Time of Max    Maximum
                          Volume   Pcnt   Pcnt   Pcnt      Volume   Pcnt     Occurrence    Outflow
  Storage Unit          1000 ftł   Full   Loss   Loss    1000 ftł   Full    days hr:min        CFS
  ------------------------------------------------------------------------------------------------
  1023                     1.688    0.2    0.0    0.0      44.674    4.0       0  12:08     102.71
  1053                    10.362    8.3    0.0    0.0     121.216   97.4       0  12:48      81.33
  1125                     0.557    1.0    0.0    0.0       5.876   10.5       0  12:00     141.45
  1134                     3.001    1.9    0.0    0.0      93.143   57.5       0  12:13     598.77
  1237                     0.095    0.0    0.0    0.0       2.146    0.6       0  12:00      39.47
  1239                     0.227    0.2    0.0    0.0      11.182    9.6       0  12:06      42.76
  1346                     0.448    0.3    0.0    0.0      27.604   19.0       0  12:06     177.97
  1384                     0.135    0.3    0.0    0.0       1.706    4.3       0  11:58      53.84
  1393                     0.185    1.4    0.0    0.0       2.286   17.6       0  12:00      31.70
  1055                     0.089   13.0    0.0    0.0       0.676   98.7       0  12:49      67.32
  
  
  ***********************
  Outfall Loading Summary
  ***********************
  
  -----------------------------------------------------------
                         Flow       Avg       Max       Total
                         Freq      Flow      Flow      Volume
  Outfall Node           Pcnt       CFS       CFS    10^6 gal
  -----------------------------------------------------------
  2892                  98.93    185.30   1705.43     123.167
  -----------------------------------------------------------
  System                98.93    185.30   1705.43     123.167
  
  
  ********************
  Link Flow Summary
  ********************
  
  -----------------------------------------------------------------------------
                                 Maximum  Time of Max   Maximum    Max/    Max/
                                  |Flow|   Occurrence   |Veloc|    Full    Full
  Link                 Type          CFS  days hr:min    ft/sec    Flow   Depth
  -----------------------------------------------------------------------------
  40151                CONDUIT     61.15     0  12:06     10.20    0.64    0.79
  40191                CONDUIT     40.46     0  12:06      4.33    0.00    0.07
  40231                CONDUIT    102.71     0  12:08     13.30    0.55    0.75
  40251                CONDUIT    102.71     0  12:08     10.83    0.39    0.72
  40291                CONDUIT     21.46     0  12:00     13.88    0.73    0.82
  40311                CONDUIT    142.09     0  12:06     13.54    1.06    0.78
  40351                CONDUIT    141.13     0  12:06      5.09    0.00    0.11
  40411                CONDUIT    149.87     0  12:06      3.91    0.02    0.28
  40431                CONDUIT     55.32     0  12:16      3.61    0.89    0.93
  40432                CONDUIT     88.72     0  12:08      8.79    1.03    0.75
  40471                CONDUIT     88.66     0  12:09     10.31    0.72    0.77
  40491                CONDUIT     93.69     0  12:09      7.83    0.66    0.96
  40551                CONDUIT     43.99     0  12:55     14.03    1.85    1.00
  40571                CONDUIT    128.37     0  12:01     10.22    0.81    1.00
  40611                CONDUIT    128.35     0  12:01     10.70    1.79    1.00
  40651                CONDUIT    128.93     0  12:06     11.08    0.75    1.00
  40731                CONDUIT    164.60     0  12:33     13.10    1.34    1.00
  40751                CONDUIT     35.72     0  11:59     11.40    1.41    1.00
  40771                CONDUIT     53.04     0  12:00      8.43    0.72    0.83
  40791                CONDUIT     53.05     0  12:00      4.22    0.44    1.00
  40851                CONDUIT     32.78     0  12:00     15.91    0.62    0.63
  40871                CONDUIT     32.22     0  12:00      4.06    0.04    0.31
  40891                CONDUIT     29.36     0  12:06     14.46    0.66    0.66
  40911                CONDUIT     33.60     0  12:07      1.78    0.15    0.69
  40951                CONDUIT     32.92     0  12:13     10.48    1.01    1.00
  40971                CONDUIT     20.34     0  12:11      3.90    0.79    0.81
  40991                CONDUIT     20.48     0  11:55      8.34    0.62    0.50
  41031                CONDUIT     23.64     0  12:06      3.43    0.13    0.36
  41051                CONDUIT     62.18     0  12:00     18.56    0.46    0.48
  41171                CONDUIT     42.78     0  11:56     13.77    1.08    1.00
  41191                CONDUIT     81.04     0  11:57     11.70    0.83    1.00
  41231                CONDUIT    118.94     0  11:57      7.72    0.61    0.75
  41251                CONDUIT    141.45     0  12:00     13.46    0.48    0.57
  41271                CONDUIT    184.02     0  12:00     17.58    0.49    0.54
  41291                CONDUIT    215.09     0  12:01     10.98    0.09    0.37
  41301                CONDUIT    823.93     0  12:05     13.70    0.27    1.00
  41341                CONDUIT    166.74     0  12:07     13.53    1.24    0.97
  41361                CONDUIT    193.50     0  12:07      2.50    0.18    0.77
  41391                CONDUIT    468.85     0  12:06     12.92    3.33    0.93
  41401                CONDUIT    467.80     0  12:06      7.24    0.66    0.89
  41421                CONDUIT    388.08     0  12:19      8.01    1.79    0.86
  41441                CONDUIT    388.08     0  12:19     13.43    0.92    0.85
  41451                CONDUIT    388.08     0  12:20      7.23    0.66    0.77
  41461                CONDUIT    422.38     0  12:06      9.69    0.52    0.47
  41491                CONDUIT     31.70     0  12:00     11.97    0.37    0.40
  41511                CONDUIT     31.60     0  12:00     13.04    0.09    0.40
  41581                CONDUIT      0.00     0  00:00      0.00    0.00    0.00
  41591                CONDUIT      0.00     0  00:00      0.00    0.00    0.00
  41611                CONDUIT     36.86     0  12:00     11.10    0.46    0.48
  41641                CONDUIT    152.90     0  12:00      8.05    0.55    0.60
  41642                CONDUIT    152.90     0  12:00      8.05    0.55    0.60
  41643                CONDUIT    152.90     0  12:00      8.05    0.55    0.60
  41651                CONDUIT    242.58     0  12:00     10.71    0.42    0.52
  41652                CONDUIT    242.58     0  12:00     10.71    0.42    0.52
  41661                CONDUIT    657.20     0  12:01      6.31    0.06    0.28
  41771                CONDUIT     44.65     0  12:00     14.21    2.13    1.00
  41911                CONDUIT     58.80     0  12:00      6.07    0.15    0.39
  41931                CONDUIT     58.92     0  12:00     14.48    0.16    0.26
  41951                CHANNEL     54.08     0  12:02      1.53    0.02    0.41
  41981                CONDUIT    362.12     0  12:06     14.60    0.85    0.69
  41982                CONDUIT    362.12     0  12:06     14.60    0.85    0.69
  41991                CONDUIT     34.23     0  12:00     15.13    0.27    0.36
  42011                CONDUIT    376.38     0  12:06     15.05    0.32    0.39
  42012                CONDUIT    376.38     0  12:06     15.05    0.32    0.39
  42021                CONDUIT     31.10     0  12:00      3.69    0.16    0.64
  42031                CONDUIT    399.76     0  12:06     14.17    0.40    0.44
  42032                CONDUIT    399.76     0  12:06     14.17    0.40    0.44
  42051                CONDUIT     43.06     0  12:01      1.91    0.02    0.41
  42061                CONDUIT     74.86     0  12:06      6.74    1.23    0.83
  42071                CONDUIT     48.82     0  12:11      4.79    1.02    0.76
  42091                CONDUIT    505.96     0  12:06     15.10    0.41    0.42
  42092                CONDUIT    505.09     0  12:06     15.07    0.41    0.42
  42121                CONDUIT     64.97     0  12:03      3.14    0.02    0.29
  42161                CONDUIT     34.23     0  11:59     11.49    1.08    0.99
  42191                CONDUIT    526.11     0  12:06     11.72    0.34    0.56
  42192                CONDUIT    526.11     0  12:06     11.72    0.34    0.56
  42231                CONDUIT    577.95     0  12:06     10.86    1.03    0.67
  42232                CONDUIT    577.95     0  12:06     10.86    1.03    0.67
  42241                CONDUIT   1225.23     0  12:07      5.88    0.67    0.86
  42261                CONDUIT    105.65     0  12:00     14.11    0.40    0.48
  42271                CONDUIT    103.54     0  12:00      3.10    0.00    0.05
  42281                CONDUIT    104.03     0  12:01     11.40    0.07    0.13
  42291                CONDUIT    103.13     0  12:02      3.12    0.00    0.03
  42311                CONDUIT    208.93     0  12:03      3.22    0.00    0.05
  42331                CONDUIT     18.72     0  12:06      7.01    0.22    0.32
  42351                CONDUIT    196.71     0  12:06      5.27    0.00    0.09
  42371                CONDUIT     39.47     0  12:00     10.39    0.18    0.29
  42381                CONDUIT     38.73     0  12:01      2.06    0.00    0.12
  42391                CONDUIT     42.76     0  12:06     14.75    1.24    1.00
  42401                CONDUIT    219.70     0  12:08      3.61    0.02    0.18
  42411                CONDUIT    302.60     0  12:08      5.40    0.20    0.45
  42421                CONDUIT     11.87     0  12:00     10.86    0.10    0.21
  42431                CONDUIT    149.39     0  12:10     10.43    0.52    0.57
  42432                CONDUIT    149.39     0  12:10     10.43    0.52    0.57
  42451                CONDUIT    305.57     0  12:10      6.47    0.11    0.42
  42461                CONDUIT    305.56     0  12:10      9.15    0.28    0.51
  42471                CONDUIT    305.55     0  12:10      7.40    0.27    0.55
  42491                CONDUIT    305.44     0  12:10     14.30    0.41    0.51
  42501                CONDUIT    303.13     0  12:12      5.45    0.33    0.57
  42551                CONDUIT     39.54     0  12:00      3.07    0.08    0.41
  42591                CONDUIT     65.42     0  12:06     14.26    0.30    0.40
  42611                CONDUIT     72.88     0  12:05      4.17    0.08    0.39
  42631                CONDUIT    418.05     0  12:12      5.77    0.38    0.69
  42671                CONDUIT     42.36     0  12:00     14.08    0.18    0.29
  42711                CONDUIT    394.72     0  12:13      6.88    0.32    0.45
  42731                CONDUIT    209.80     0  12:09     10.45    0.51    0.64
  42732                CONDUIT    209.80     0  12:09     10.45    0.51    0.64
  42751                CONDUIT    424.61     0  12:13      4.94    0.16    0.73
  42781                CONDUIT    798.65     0  12:10     16.64    1.56    1.00
  42782                CONDUIT    798.65     0  12:10     16.64    1.56    1.00
  42791                CONDUIT   1596.69     0  12:10      8.54    0.67    0.78
  42801                CONDUIT    798.46     0  12:10     16.63    1.08    1.00
  42802                CONDUIT    798.46     0  12:10     16.63    1.08    1.00
  42831                CHANNEL   1597.55     0  12:10      4.34    1.14    0.98
  42901                CONDUIT     47.66     0  12:13     12.65    0.73    0.72
  42911                CONDUIT     47.66     0  12:13      2.10    0.12    0.68
  42921                CHANNEL   1808.19     0  12:09      5.81    0.68    0.78
  42951                CONDUIT    775.74     0  12:17     15.33    0.39    0.51
  42952                CONDUIT    775.74     0  12:17     15.33    0.39    0.51
  42961                CONDUIT   1552.11     0  12:18      6.72    0.20    0.53
  43001                CONDUIT     85.52     0  12:00     10.62    0.38    0.61
  43021                CONDUIT     83.40     0  12:00      3.28    0.27    0.68
  43031                CONDUIT     82.86     0  12:00      9.26    1.32    0.88
  43041                CONDUIT     82.80     0  12:00      4.14    0.58    0.66
  43051                CONDUIT     82.53     0  12:01     13.91    0.62    0.60
  43081                CONDUIT    175.18     0  12:01      5.03    0.18    0.54
  43121                CONDUIT    192.07     0  11:59     12.31    0.71    0.94
  43151                CONDUIT    175.28     0  12:00     15.79    0.84    0.71
  43171                CONDUIT    230.51     0  12:01      4.78    0.14    0.35
  43181                CONDUIT     45.62     0  12:00     19.27    0.29    0.37
  43191                CONDUIT    309.72     0  12:07      3.89    0.27    0.72
  43201                CONDUIT   1735.32     0  12:14      6.35    0.34    0.53
  43211                CONDUIT   4932.92     0  12:42    >50.00    3.05    0.70
  43212                CONDUIT   4932.92     0  12:42    >50.00    3.05    0.70
  43213                CONDUIT   4932.92     0  12:42    >50.00    3.05    0.70
  43241                CHANNEL   1781.33     0  12:42      8.27    0.37    0.60
  43271                CONDUIT     57.88     0  12:00      9.25    1.01    0.83
  43281                CONDUIT     56.91     0  12:00      2.26    0.01    0.35
  43301                CHANNEL   1791.67     0  12:18      6.41    0.44    0.74
  43321                CONDUIT     52.00     0  12:00      2.44    0.05    0.57
  43341                CONDUIT     12.65     0  12:15      7.31    1.94    0.95
  43351                CONDUIT     12.65     0  12:16      1.12    0.00    0.48
  43391                CHANNEL   1790.67     0  12:23      4.74    0.49    0.74
  43401                CONDUIT     32.72     0  12:00      6.36    0.17    0.47
  43421                CONDUIT     95.42     0  12:00     12.91    0.57    0.57
  43441                CONDUIT     95.26     0  12:00     15.30    0.47    0.54
  43461                CONDUIT    177.97     0  12:06     12.46    0.74    0.68
  43471                CONDUIT    177.96     0  12:06      5.03    0.06    0.46
  43481                CHANNEL   1815.24     0  12:29      4.46    0.12    0.47
  43501                CONDUIT    144.77     0  12:00     11.79    1.51    0.94
  43511                CONDUIT    143.09     0  12:00      6.25    0.00    0.07
  43531                CONDUIT    220.24     0  12:00      3.65    0.01    0.10
  43551                CONDUIT    226.01     0  12:02     16.94    0.96    0.78
  43571                CONDUIT     26.92     0  12:00     17.97    0.47    0.56
  43581                CHANNEL   1813.93     0  12:37      3.86    0.16    0.57
  43601                CHANNEL    671.99     0  12:03      5.26    0.13    0.54
  43631                CONDUIT   1905.08     0  12:42      4.86    0.30    0.55
  43661                CONDUIT     26.10     0  12:00      9.60    0.34    0.54
  43671                CONDUIT     60.40     0  12:00     16.38    0.38    0.41
  43681                CONDUIT     60.30     0  12:00     17.50    0.18    0.32
  43691                CONDUIT     91.60     0  12:00     21.47    0.27    0.37
  43701                CONDUIT     91.39     0  12:00      3.60    0.13    0.69
  43751                CONDUIT    644.03     0  12:44     11.62    1.11    0.55
  43752                CONDUIT    644.03     0  12:44     11.62    1.11    0.55
  43753                CONDUIT    644.03     0  12:44     11.62    1.11    0.55
  43771                CHANNEL   1921.97     0  12:47      6.44    0.54    0.73
  43811                CHANNEL   1877.26     0  12:50      3.11    0.20    0.62
  43841                CONDUIT     53.84     0  12:00     18.02    0.40    0.44
  43851                CONDUIT     51.54     0  12:00      3.38    0.01    0.17
  43871                CONDUIT     85.03     0  12:06     14.36    0.29    0.40
  43881                CONDUIT    114.25     0  12:07      1.45    0.12    0.64
  43911                CHANNEL   1753.95     0  12:54      2.91    0.07    0.50
  43931                CONDUIT     31.70     0  12:00     13.06    0.28    0.38
  43951                CONDUIT     60.86     0  12:01      3.36    0.06    0.37
  43971                CONDUIT     34.69     0  12:00     10.26    0.31    0.49
  43991                CONDUIT    130.69     0  12:06      4.92    0.05    0.29
  44011                CONDUIT    130.43     0  12:06     13.89    0.12    0.29
  44021                CONDUIT    140.14     0  12:05      5.29    0.45    0.81
  44051                CHANNEL   1706.26     0  12:59      1.90    0.11    0.54
  44081                CONDUIT     69.28     0  12:01      1.30    0.00    0.26
  44101                CONDUIT    849.04     0  13:05     11.48    1.46    0.51
  44102                CONDUIT    849.04     0  13:05     11.48    1.46    0.51
  44111                CHANNEL   1697.79     0  13:06      4.80    0.01    0.17
  44131                CHANNEL   1697.03     0  13:08      9.36    0.01    0.10
  44151                CHANNEL   1705.43     0  13:08     15.05    0.00    0.04
  WEIR1@1053-1055      WEIR        81.33     0  13:44                      1.00
  
  
  ***************************
  Flow Classification Summary
  ***************************
  
  -------------------------------------------------------------------------------------
                      Adjusted    ---------- Fraction of Time in Flow Class ---------- 
                       /Actual         Up    Down  Sub   Sup   Up    Down  Norm  Inlet 
  Conduit               Length    Dry  Dry   Dry   Crit  Crit  Crit  Crit  Ltd   Ctrl  
  -------------------------------------------------------------------------------------
  40151                   1.00   0.00  0.00  0.00  0.08  0.91  0.00  0.00  0.98  0.00
  40191                   1.00   0.00  0.00  0.00  0.00  0.00  0.00  1.00  0.00  0.00
  40231                   2.01   0.00  0.00  0.00  0.00  1.00  0.00  0.00  0.00  0.00
  40251                   1.00   0.00  0.00  0.00  0.01  0.99  0.00  0.00  1.00  0.00
  40291                   1.00   0.00  0.00  0.00  0.97  0.03  0.00  0.00  1.00  0.00
  40311                   1.00   0.00  0.00  0.00  0.00  0.99  0.00  0.00  0.00  0.00
  40351                   1.00   0.00  0.00  0.00  1.00  0.00  0.00  0.00  0.00  0.00
  40411                   1.00   0.01  0.00  0.00  0.99  0.00  0.00  0.00  0.28  0.00
  40431                   1.00   0.01  0.01  0.00  0.98  0.00  0.00  0.00  0.00  0.00
  40432                   1.00   0.02  0.00  0.00  0.38  0.60  0.00  0.00  0.00  0.00
  40471                   1.00   0.02  0.00  0.00  0.02  0.96  0.00  0.00  0.01  0.00
  40491                   1.00   0.00  0.02  0.00  0.85  0.13  0.00  0.00  0.97  0.00
  40551                   1.00   0.00  0.01  0.00  0.23  0.76  0.00  0.00  0.87  0.00
  40571                   1.00   0.00  0.00  0.00  0.21  0.79  0.00  0.00  0.95  0.00
  40611                   1.00   0.00  0.00  0.00  0.18  0.82  0.00  0.00  0.00  0.00
  40651                   1.00   0.00  0.00  0.00  0.06  0.93  0.00  0.00  0.96  0.00
  40731                   1.00   0.00  0.01  0.00  0.99  0.00  0.00  0.00  0.96  0.00
  40751                   1.00   0.00  0.00  0.00  0.01  0.99  0.00  0.00  0.92  0.00
  40771                   1.00   0.00  0.01  0.00  0.99  0.00  0.00  0.00  0.99  0.00
  40791                   1.00   0.00  0.00  0.00  1.00  0.00  0.00  0.00  0.00  0.00
  40851                   1.00   0.00  0.00  0.00  0.00  1.00  0.00  0.00  0.00  0.00
  40871                   1.00   0.00  0.00  0.00  0.99  0.00  0.00  0.00  0.98  0.00
  40891                   1.00   0.01  0.00  0.00  0.00  0.99  0.00  0.00  0.10  0.00
  40911                   1.00   0.00  0.01  0.00  0.99  0.00  0.00  0.00  0.75  0.00
  40951                   1.00   0.00  0.00  0.00  0.13  0.86  0.00  0.00  0.32  0.00
  40971                   1.00   0.01  0.00  0.00  0.99  0.00  0.00  0.00  0.03  0.00
  40991                   1.00   0.02  0.00  0.00  0.01  0.98  0.00  0.00  0.00  0.00
  41031                   1.00   0.00  0.02  0.00  0.98  0.00  0.00  0.00  0.32  0.00
  41051                   1.00   0.00  0.00  0.00  0.00  0.01  0.00  0.99  0.01  0.00
  41171                   1.00   0.00  0.00  0.00  0.01  0.99  0.00  0.00  0.98  0.00
  41191                   1.00   0.00  0.00  0.00  0.98  0.01  0.00  0.00  0.98  0.00
  41231                   1.00   0.00  0.00  0.00  0.99  0.00  0.00  0.00  0.14  0.00
  41251                   1.00   0.00  0.00  0.00  0.14  0.85  0.00  0.00  0.99  0.00
  41271                   1.00   0.00  0.00  0.00  0.00  1.00  0.00  0.00  0.00  0.00
  41291                   1.00   0.00  0.00  0.00  0.11  0.88  0.00  0.00  0.01  0.00
  41301                   1.00   0.00  0.01  0.00  0.99  0.00  0.00  0.00  0.97  0.00
  41341                   1.00   0.00  0.00  0.00  0.02  0.97  0.00  0.00  0.00  0.00
  41361                   1.00   0.00  0.01  0.00  0.99  0.00  0.00  0.00  0.33  0.00
  41391                   1.00   0.00  0.00  0.00  1.00  0.00  0.00  0.00  0.00  0.00
  41401                   1.00   0.03  0.00  0.00  0.97  0.00  0.00  0.00  0.33  0.00
  41421                   1.00   0.03  0.00  0.00  0.97  0.00  0.00  0.00  0.00  0.00
  41441                   1.00   0.04  0.00  0.00  0.04  0.92  0.00  0.00  0.31  0.00
  41451                   1.00   0.00  0.04  0.00  0.96  0.00  0.00  0.00  0.01  0.00
  41461                   1.00   0.00  0.00  0.00  0.93  0.06  0.00  0.00  0.00  0.00
  41491                   1.00   0.00  0.00  0.00  0.00  0.99  0.00  0.00  0.00  0.00
  41511                   1.00   0.00  0.00  0.00  0.02  0.03  0.00  0.94  0.05  0.00
  41581                   1.00   1.00  0.00  0.00  0.00  0.00  0.00  0.00  0.00  0.00
  41591                   1.00   1.00  0.00  0.00  0.00  0.00  0.00  0.00  0.00  0.00
  41611                   1.00   0.00  0.00  0.00  0.00  0.00  0.00  1.00  0.00  0.00
  41641                   1.00   0.00  0.00  0.00  0.99  0.00  0.00  0.00  0.27  0.00
  41642                   1.00   0.00  0.00  0.00  0.99  0.00  0.00  0.00  0.27  0.00
  41643                   1.00   0.00  0.00  0.00  0.99  0.00  0.00  0.00  0.27  0.00
  41651                   1.00   0.00  0.00  0.00  0.01  0.09  0.00  0.90  0.10  0.00
  41652                   1.00   0.00  0.00  0.00  0.01  0.09  0.00  0.90  0.10  0.00
  41661                   1.00   0.00  0.00  0.00  1.00  0.00  0.00  0.00  0.00  0.00
  41771                   1.00   0.00  0.00  0.00  0.00  0.00  0.00  1.00  0.00  0.00
  41911                   1.00   0.00  0.00  0.00  0.98  0.02  0.00  0.00  0.05  0.00
  41931                   1.00   0.01  0.00  0.00  0.00  0.99  0.00  0.00  0.01  0.00
  41951                   1.00   0.00  0.01  0.00  0.98  0.00  0.00  0.00  0.93  0.00
  41981                   1.00   0.00  0.00  0.00  0.03  0.96  0.00  0.00  0.00  0.00
  41982                   1.00   0.00  0.00  0.00  0.03  0.96  0.00  0.00  0.00  0.00
  41991                   1.00   0.00  0.00  0.00  0.00  0.00  0.00  1.00  0.00  0.00
  42011                   1.00   0.01  0.00  0.00  0.04  0.95  0.00  0.00  0.98  0.00
  42012                   1.00   0.01  0.00  0.00  0.04  0.95  0.00  0.00  0.98  0.00
  42021                   1.00   0.00  0.00  0.00  1.00  0.00  0.00  0.00  1.00  0.00
  42031                   1.00   0.00  0.00  0.00  0.07  0.93  0.00  0.00  0.91  0.00
  42032                   1.00   0.00  0.00  0.00  0.07  0.93  0.00  0.00  0.91  0.00
  42051                   1.00   0.00  0.00  0.00  0.99  0.00  0.00  0.00  0.97  0.00
  42061                   1.00   0.00  0.00  0.00  0.00  0.00  0.00  1.00  0.00  0.00
  42071                   1.00   0.00  0.00  0.00  0.00  0.00  0.00  1.00  0.00  0.00
  42091                   1.00   0.00  0.00  0.00  0.01  0.98  0.00  0.00  0.00  0.00
  42092                   1.00   0.00  0.00  0.00  0.01  0.98  0.00  0.00  0.00  0.00
  42121                   1.00   0.00  0.00  0.00  1.00  0.00  0.00  0.00  0.56  0.00
  42161                   1.00   0.01  0.00  0.00  0.00  0.00  0.00  0.99  0.00  0.00
  42191                   1.00   0.00  0.00  0.00  0.99  0.00  0.00  0.00  0.99  0.00
  42192                   1.00   0.00  0.00  0.00  0.99  0.00  0.00  0.00  0.99  0.00
  42231                   1.00   0.00  0.00  0.00  0.00  0.00  0.00  1.00  0.00  0.00
  42232                   1.00   0.00  0.00  0.00  0.00  0.00  0.00  1.00  0.00  0.00
  42241                   1.00   0.00  0.00  0.00  1.00  0.00  0.00  0.00  0.00  0.00
  42261                   1.00   0.00  0.00  0.00  0.00  1.00  0.00  0.00  0.00  0.00
  42271                   1.00   0.00  0.00  0.00  1.00  0.00  0.00  0.00  0.00  0.00
  42281                   1.00   0.01  0.00  0.00  0.01  0.98  0.00  0.00  0.81  0.00
  42291                   1.00   0.00  0.02  0.00  0.98  0.00  0.00  0.00  0.02  0.00
  42311                   1.00   0.00  0.00  0.00  1.00  0.00  0.00  0.00  0.33  0.00
  42331                   1.00   0.00  0.00  0.00  0.00  0.00  0.00  1.00  0.00  0.00
  42351                   1.00   0.01  0.00  0.00  0.99  0.00  0.00  0.00  0.00  0.00
  42371                   1.00   0.00  0.00  0.00  0.00  0.00  0.00  1.00  0.00  0.00
  42381                   1.00   0.01  0.00  0.00  0.99  0.00  0.00  0.00  0.92  0.00
  42391                   1.00   0.00  0.00  0.00  0.00  0.00  0.00  1.00  0.00  0.00
  42401                   1.00   0.00  0.01  0.00  0.98  0.00  0.00  0.00  0.16  0.00
  42411                   1.00   0.00  0.00  0.00  1.00  0.00  0.00  0.00  0.00  0.00
  42421                   1.00   0.00  0.00  0.00  0.00  0.00  0.00  1.00  0.00  0.00
  42431                   1.00   0.00  0.01  0.00  0.96  0.03  0.00  0.00  0.98  0.00
  42432                   1.00   0.00  0.01  0.00  0.96  0.03  0.00  0.00  0.98  0.00
  42451                   1.00   0.00  0.00  0.00  1.00  0.00  0.00  0.00  0.00  0.00
  42461                   1.00   0.01  0.00  0.00  0.99  0.00  0.00  0.00  0.02  0.00
  42471                   1.00   0.02  0.00  0.00  0.84  0.14  0.00  0.00  0.00  0.00
  42491                   1.00   0.02  0.00  0.00  0.00  0.00  0.00  0.98  0.00  0.00
  42501                   1.00   0.00  0.02  0.00  0.97  0.00  0.00  0.00  0.02  0.00
  42551                   1.00   0.00  0.00  0.00  1.00  0.00  0.00  0.00  0.96  0.00
  42591                   1.00   0.01  0.00  0.00  0.00  0.99  0.00  0.00  0.06  0.00
  42611                   1.00   0.00  0.01  0.00  0.99  0.00  0.00  0.00  0.43  0.00
  42631                   1.00   0.00  0.00  0.00  1.00  0.00  0.00  0.00  0.29  0.00
  42671                   1.00   0.00  0.00  0.00  0.00  0.01  0.00  0.99  0.01  0.00
  42711                   1.00   0.00  0.00  0.00  0.99  0.00  0.00  0.00  0.00  0.00
  42731                   1.00   0.00  0.00  0.00  0.95  0.05  0.00  0.00  0.94  0.00
  42732                   1.00   0.00  0.00  0.00  0.95  0.05  0.00  0.00  0.94  0.00
  42751                   1.00   0.00  0.01  0.00  0.99  0.00  0.00  0.00  0.14  0.00
  42781                   1.00   0.00  0.00  0.00  1.00  0.00  0.00  0.00  0.66  0.00
  42782                   1.00   0.00  0.00  0.00  1.00  0.00  0.00  0.00  0.66  0.00
  42791                   1.00   0.01  0.00  0.00  0.99  0.00  0.00  0.00  0.00  0.00
  42801                   1.00   0.02  0.00  0.00  0.95  0.02  0.00  0.00  0.93  0.00
  42802                   1.00   0.02  0.00  0.00  0.95  0.02  0.00  0.00  0.93  0.00
  42831                   1.00   0.01  0.02  0.00  0.97  0.00  0.00  0.00  0.01  0.00
  42901                   1.00   0.00  0.00  0.00  0.00  1.00  0.00  0.00  0.00  0.00
  42911                   1.00   0.00  0.00  0.00  0.97  0.02  0.00  0.00  0.94  0.00
  42921                   1.00   0.00  0.01  0.00  0.99  0.00  0.00  0.00  0.00  0.00
  42951                   1.00   0.00  0.00  0.00  0.61  0.38  0.00  0.00  0.98  0.00
  42952                   1.00   0.00  0.00  0.00  0.61  0.38  0.00  0.00  0.98  0.00
  42961                   1.00   0.01  0.00  0.00  0.99  0.00  0.00  0.00  0.00  0.00
  43001                   1.00   0.00  0.00  0.00  0.00  1.00  0.00  0.00  0.97  0.00
  43021                   1.00   0.00  0.00  0.00  1.00  0.00  0.00  0.00  0.00  0.00
  43031                   1.00   0.01  0.00  0.00  0.29  0.70  0.00  0.00  0.08  0.00
  43041                   1.00   0.01  0.00  0.00  0.99  0.00  0.00  0.00  0.00  0.00
  43051                   1.00   0.00  0.01  0.00  0.00  0.99  0.00  0.00  0.03  0.00
  43081                   1.00   0.00  0.00  0.00  1.00  0.00  0.00  0.00  0.39  0.00
  43121                   1.00   0.01  0.00  0.00  0.02  0.98  0.00  0.00  0.02  0.00
  43151                   1.00   0.00  0.01  0.00  0.01  0.97  0.00  0.00  0.02  0.00
  43171                   1.00   0.00  0.00  0.00  1.00  0.00  0.00  0.00  0.05  0.00
  43181                   1.00   0.00  0.00  0.00  0.00  0.00  0.00  1.00  0.00  0.00
  43191                   1.00   0.01  0.00  0.00  0.99  0.00  0.00  0.00  0.47  0.00
  43201                   1.00   0.00  0.00  0.00  1.00  0.00  0.00  0.00  0.00  0.00
  43211                   1.00   0.01  0.00  0.00  0.00  0.02  0.00  0.97  0.02  0.00
  43212                   1.00   0.01  0.00  0.00  0.00  0.02  0.00  0.97  0.02  0.00
  43213                   1.00   0.01  0.00  0.00  0.00  0.02  0.00  0.97  0.02  0.00
  43241                   1.00   0.01  0.00  0.00  0.99  0.00  0.00  0.00  0.01  0.00
  43271                   1.00   0.00  0.00  0.00  0.00  0.00  0.00  1.00  0.00  0.00
  43281                   1.00   0.00  0.00  0.00  0.98  0.02  0.00  0.00  0.93  0.00
  43301                   1.00   0.00  0.00  0.00  0.99  0.00  0.00  0.00  0.01  0.00
  43321                   1.00   0.00  0.00  0.00  1.00  0.00  0.00  0.00  0.99  0.00
  43341                   1.00   0.00  0.00  0.00  0.00  0.00  0.00  1.00  0.00  0.00
  43351                   1.00   0.00  0.00  0.00  0.95  0.04  0.00  0.00  0.95  0.00
  43391                   1.00   0.00  0.00  0.00  1.00  0.00  0.00  0.00  0.00  0.00
  43401                   1.00   0.00  0.00  0.00  0.94  0.05  0.00  0.00  1.00  0.00
  43421                   1.00   0.00  0.00  0.00  0.00  0.99  0.00  0.00  0.01  0.00
  43441                   1.00   0.00  0.00  0.00  0.00  0.01  0.00  0.98  0.01  0.00
  43461                   1.00   0.00  0.00  0.00  0.00  0.99  0.00  0.00  0.00  0.00
  43471                   1.00   0.01  0.00  0.00  0.92  0.07  0.00  0.00  0.87  0.00
  43481                   1.00   0.01  0.01  0.00  0.99  0.00  0.00  0.00  0.02  0.00
  43501                   1.00   0.00  0.00  0.00  0.00  0.00  0.00  1.00  0.00  0.00
  43511                   1.00   0.00  0.00  0.00  1.00  0.00  0.00  0.00  0.00  0.00
  43531                   1.00   0.00  0.00  0.00  0.99  0.00  0.00  0.00  0.61  0.00
  43551                   1.00   0.00  0.00  0.00  0.00  0.02  0.00  0.97  0.02  0.00
  43571                   1.00   0.00  0.00  0.00  0.03  0.02  0.00  0.95  0.05  0.00
  43581                   1.00   0.01  0.00  0.00  0.99  0.00  0.00  0.00  0.00  0.00
  43601                   1.00   0.00  0.00  0.00  1.00  0.00  0.00  0.00  0.00  0.00
  43631                   1.00   0.00  0.01  0.00  0.99  0.00  0.00  0.00  0.07  0.00
  43661                   1.00   0.00  0.00  0.00  0.00  0.99  0.00  0.00  1.00  0.00
  43671                   1.00   0.00  0.00  0.00  0.00  1.00  0.00  0.00  0.00  0.00
  43681                   1.00   0.00  0.00  0.00  0.00  0.99  0.00  0.00  1.00  0.00
  43691                   1.00   0.00  0.00  0.00  0.00  1.00  0.00  0.00  0.06  0.00
  43701                   1.00   0.00  0.01  0.00  0.99  0.00  0.00  0.00  0.99  0.00
  43751                   1.00   0.01  0.00  0.00  0.02  0.00  0.00  0.97  0.00  0.00
  43752                   1.00   0.01  0.00  0.00  0.02  0.00  0.00  0.97  0.00  0.00
  43753                   1.00   0.01  0.00  0.00  0.02  0.00  0.00  0.97  0.00  0.00
  43771                   1.00   0.01  0.01  0.00  0.98  0.00  0.00  0.00  0.01  0.00
  43811                   1.00   0.00  0.00  0.00  0.99  0.00  0.00  0.00  0.00  0.00
  43841                   1.00   0.00  0.00  0.00  0.00  0.99  0.00  0.00  0.03  0.00
  43851                   1.00   0.00  0.00  0.00  0.99  0.00  0.00  0.00  0.99  0.00
  43871                   1.00   0.00  0.00  0.00  0.00  0.99  0.00  0.00  0.00  0.00
  43881                   1.00   0.00  0.01  0.00  0.99  0.00  0.00  0.00  0.86  0.00
  43911                   1.00   0.00  0.00  0.00  1.00  0.00  0.00  0.00  0.00  0.00
  43931                   1.00   0.01  0.00  0.00  0.00  0.99  0.00  0.00  0.29  0.00
  43951                   1.00   0.00  0.00  0.00  0.99  0.00  0.00  0.00  0.71  0.00
  43971                   1.00   0.00  0.00  0.00  0.00  1.00  0.00  0.00  0.90  0.00
  43991                   1.00   0.00  0.00  0.00  1.00  0.00  0.00  0.00  0.01  0.00
  44011                   1.00   0.01  0.00  0.00  0.00  0.99  0.00  0.00  0.25  0.00
  44021                   1.00   0.01  0.01  0.00  0.98  0.00  0.00  0.00  0.80  0.00
  44051                   1.00   0.00  0.00  0.00  1.00  0.00  0.00  0.00  0.00  0.00
  44081                   1.00   0.00  0.01  0.00  0.99  0.00  0.00  0.00  0.99  0.00
  44101                   1.00   0.01  0.00  0.00  0.00  0.00  0.00  0.99  0.00  0.00
  44102                   1.00   0.01  0.00  0.00  0.00  0.00  0.00  0.99  0.00  0.00
  44111                   1.00   0.01  0.00  0.00  0.99  0.00  0.00  0.00  0.00  0.00
  44131                   1.00   0.00  0.07  0.00  0.92  0.00  0.00  0.00  0.02  0.00
  44151                   1.00   0.00  0.00  0.00  0.16  0.84  0.00  0.00  0.17  0.00
  
  
  *************************
  Conduit Surcharge Summary
  *************************
  
  ----------------------------------------------------------------------------
                                                           Hours        Hours 
                         --------- Hours Full --------   Above Full   Capacity
  Conduit                Both Ends  Upstream  Dnstream   Normal Flow   Limited
  ----------------------------------------------------------------------------
  40151                       0.01      0.01      0.56      0.01         0.01
  40231                       0.01      0.33      0.01      0.01         0.01
  40251                       0.01      0.01      0.22      0.01         0.01
  40291                       0.01      0.01      1.54      0.01         0.01
  40311                       0.01      0.22      0.01      0.09         0.01
  40431                       0.01      0.24      0.92      0.01         0.01
  40432                       0.01      0.01      0.01      0.09         0.01
  40491                       0.01      0.01      0.61      0.01         0.01
  40551                       0.95      2.79      0.99      2.42         0.58
  40571                       0.61      0.61      0.96      0.01         0.01
  40611                       0.15      0.96      0.15      1.12         0.15
  40651                       0.15      0.15      0.64      0.01         0.01
  40731                       0.64      0.64      1.18      0.64         0.64
  40751                       0.01      0.36      0.01      0.37         0.01
  40771                       0.01      0.01      1.29      0.01         0.01
  40791                       0.86      0.86      1.18      0.01         0.01
  40911                       0.01      0.01      1.47      0.01         0.01
  40951                       1.59      1.59      3.19      0.76         0.76
  40971                       0.01      3.10      0.01      0.01         0.01
  41171                       0.25      0.25      0.30      0.27         0.25
  41191                       0.25      0.25     21.60      0.01         0.01
  41231                       0.01      0.01      1.03      0.01         0.01
  41301                       0.05      0.05      0.82      0.01         0.01
  41341                       0.01      0.65      0.01      0.60         0.01
  41361                       0.01      0.01      0.12      0.01         0.01
  41391                       0.01      0.35      0.01      1.35         0.01
  41401                       0.01      0.01      0.77      0.01         0.01
  41421                       0.01      0.77      0.01      0.92         0.01
  41771                       0.17      0.25      0.17      0.30         0.17
  42021                       0.01      0.01      0.26      0.01         0.01
  42061                       0.01      0.26      0.01      0.26         0.01
  42071                       0.01      0.01      0.01      0.13         0.01
  42161                       0.01      1.28      0.01      1.41         0.01
  42231                       0.01      0.01      0.01      0.06         0.01
  42232                       0.01      0.01      0.01      0.06         0.01
  42391                       0.32      0.32      0.39      0.40         0.32
  42781                       0.38      0.40      0.38      0.47         0.38
  42782                       0.38      0.40      0.38      0.47         0.38
  42801                       0.32      0.32      0.50      0.16         0.16
  42802                       0.32      0.32      0.50      0.16         0.16
  42831                       0.01      0.17      0.01      0.19         0.01
  42901                       0.01      0.86      0.01      0.01         0.01
  42911                       0.01      0.01      3.21      0.01         0.01
  43031                       0.01      0.01      0.01      0.18         0.01
  43121                       0.01      0.01      0.20      0.01         0.01
  43151                       0.01      0.22      0.01      0.01         0.01
  43191                       0.01      0.01      0.66      0.01         0.01
  43211                       0.01      0.01      0.01      0.01         0.01
  43212                       0.01      0.01      0.01      0.01         0.01
  43213                       0.01      0.01      0.01      0.01         0.01
  43271                       0.01      0.01      0.01      0.01         0.01
  43341                       0.01      1.00      0.01      1.01         0.01
  43501                       0.01      0.16      0.01      0.20         0.01
  43701                       0.01      0.01      1.35      0.01         0.01
  43751                       0.01      0.01      0.01      0.38         0.01
  43752                       0.01      0.01      0.01      0.38         0.01
  43753                       0.01      0.01      0.01      0.38         0.01
  43881                       0.01      0.01      1.99      0.01         0.01
  44021                       0.01      0.01      2.29      0.01         0.01
  44101                       0.01      0.01      0.01      1.32         0.01
  44102                       0.01      0.01      0.01      1.32         0.01
  

  Analysis begun on:  Fri Mar  6 14:49:49 2026
  Analysis ended on:  Fri Mar  6 14:49:58 2026
  Total elapsed time: 00:00:09