
  EPA STORM WATER MANAGEMENT MODEL - VERSION 5.2 (Build 5.2.4)
  ------------------------------------------------------------

  WARNING 08: elevation drop exceeds length for Conduit 301
  WARNING 08: elevation drop exceeds length for Conduit 302
  WARNING 04: minimum elevation drop used for Conduit 313
  WARNING 04: minimum elevation drop used for Conduit 317
  WARNING 04: minimum elevation drop used for Conduit 324
  WARNING 08: elevation drop exceeds length for Conduit 327
  WARNING 04: minimum elevation drop used for Conduit 328
  WARNING 08: elevation drop exceeds length for Conduit 331
  WARNING 04: minimum elevation drop used for Conduit 363
  WARNING 04: minimum elevation drop used for Conduit 379
  WARNING 08: elevation drop exceeds length for Conduit 404
  WARNING 04: minimum elevation drop used for Conduit 408
  WARNING 04: minimum elevation drop used for Conduit 413
  WARNING 04: minimum elevation drop used for Conduit 437
  WARNING 08: elevation drop exceeds length for Conduit 438
  WARNING 10: crest elevation raised to downstream invert for regulator Link 416
  WARNING 10: crest elevation raised to downstream invert for regulator Link 422
  WARNING 10: crest elevation raised to downstream invert for regulator Link 423
  WARNING 10: crest elevation raised to downstream invert for regulator Link 424
  WARNING 10: crest elevation raised to downstream invert for regulator Link 425
  WARNING 10: crest elevation raised to downstream invert for regulator Link 426
  WARNING 10: crest elevation raised to downstream invert for regulator Link 427
  WARNING 10: crest elevation raised to downstream invert for regulator Link 428
  
  ****************
  Analysis Options
  ****************
  Flow Units ............... CFS
  Process Models:
    Rainfall/Runoff ........ YES
    RDII ................... NO
    Snowmelt ............... NO
    Groundwater ............ NO
    Flow Routing ........... YES
    Ponding Allowed ........ NO
    Water Quality .......... NO
  Infiltration Method ...... HORTON
  Flow Routing Method ...... DYNWAVE
  Surcharge Method ......... EXTRAN
  Starting Date ............ 01/01/2002 00:00:00
  Ending Date .............. 01/04/2002 06:00:00
  Antecedent Dry Days ...... 5.0
  Report Time Step ......... 00:05:00
  Wet Time Step ............ 00:05:00
  Dry Time Step ............ 01:00:00
  Routing Time Step ........ 30.00 sec
  Variable Time Step ....... YES
  Maximum Trials ........... 4
  Number of Threads ........ 1
  Head Tolerance ........... 0.005000 ft
  
  
  **************************        Volume         Depth
  Runoff Quantity Continuity     acre-feet        inches
  **************************     ---------       -------
  Total Precipitation ......      1879.007         4.000
  Evaporation Loss .........         0.000         0.000
  Infiltration Loss ........      1729.135         3.681
  Surface Runoff ...........       153.595         0.327
  Final Storage ............         1.363         0.003
  Continuity Error (%) .....        -0.271
  
  
  **************************        Volume        Volume
  Flow Routing Continuity        acre-feet      10^6 gal
  **************************     ---------     ---------
  Dry Weather Inflow .......         0.000         0.000
  Wet Weather Inflow .......       155.408        50.642
  Groundwater Inflow .......         0.000         0.000
  RDII Inflow ..............         0.000         0.000
  External Inflow ..........         0.000         0.000
  External Outflow .........         7.444         2.426
  Flooding Loss ............         8.961         2.920
  Evaporation Loss .........         0.000         0.000
  Exfiltration Loss ........         0.000         0.000
  Initial Stored Volume ....         0.006         0.002
  Final Stored Volume ......       153.454        50.005
  Continuity Error (%) .....        -9.294
  
  
  *************************
  Highest Continuity Errors
  *************************
  Node 203 (100.00%)
  Node 227 (100.00%)
  Node 246 (100.00%)
  Node 254 (100.00%)
  Node 299 (100.00%)
  
  
  ***************************
  Time-Step Critical Elements
  ***************************
  Link 388 (93.09%)
  Link 396 (4.59%)
  Link 435 (1.37%)
  
  
  ********************************
  Highest Flow Instability Indexes
  ********************************
  Link 425 (135)
  Link 422 (135)
  Link 416 (48)
  Link 431 (47)
  Link 327 (43)
  
  
  *********************************
  Most Frequent Nonconverging Nodes
  *********************************
  Node 301 (0.02%)
  Node OFALL-10 (0.02%)
  Node 208 (0.01%)
  Node 280 (0.01%)
  Node 205 (0.00%)
  
  
  *************************
  Routing Time Step Summary
  *************************
  Minimum Time Step           :     0.26 sec
  Average Time Step           :     7.32 sec
  Maximum Time Step           :    30.00 sec
  % of Time in Steady State   :     0.00
  Average Iterations per Step :     2.00
  % of Steps Not Converging   :     0.02
  Time Step Frequencies       :
     30.000 -  3.817 sec      :    98.67 %
      3.817 -  0.486 sec      :     1.33 %
      0.486 -  0.062 sec      :     0.00 %
      0.062 -  0.008 sec      :     0.00 %
      0.008 -  0.001 sec      :     0.00 %
  
  
  ***************************
  Subcatchment Runoff Summary
  ***************************
  
  ------------------------------------------------------------------------------------------------------------------------------
                            Total      Total      Total      Total     Imperv       Perv      Total       Total     Peak  Runoff
                           Precip      Runon       Evap      Infil     Runoff     Runoff     Runoff      Runoff   Runoff   Coeff
  Subcatchment                 in         in         in         in         in         in         in    10^6 gal      CFS
  ------------------------------------------------------------------------------------------------------------------------------
  05_101                     4.00       0.00       0.00       3.87       0.00       0.14       0.14        0.28    61.53   0.034
  05_102                     4.00       0.00       0.00       3.91       0.00       0.09       0.09        0.35    81.22   0.023
  05_103                     4.00       0.00       0.00       3.85       0.00       0.19       0.19        0.22    47.50   0.048
  05_104                     4.00       0.00       0.00       3.80       0.00       0.25       0.25        0.15    36.38   0.063
  05_105                     4.00       0.00       0.00       3.86       0.00       0.19       0.19        0.22    48.38   0.047
  05_106                     4.00       0.00       0.00       3.85       0.00       0.20       0.20        0.21    46.34   0.050
  05_107                     4.00       0.00       0.00       3.85       0.00       0.16       0.16        0.25    52.69   0.040
  05_108                     4.00       0.00       0.00       3.86       0.00       0.15       0.15        0.26    55.41   0.038
  05_109                     4.00       0.00       0.00       3.85       0.00       0.20       0.20        0.21    46.74   0.049
  05_110                     4.00       0.00       0.00       3.85       0.00       0.16       0.16        0.25    52.83   0.040
  05_111                     4.00       0.00       0.00       3.94       0.00       0.07       0.07        0.39    92.30   0.017
  05_112                     4.00       0.00       0.00       3.88       0.00       0.13       0.13        0.29    64.71   0.032
  05_113                     4.00       0.00       0.00       3.92       0.00       0.08       0.08        0.37    86.22   0.020
  05_114                     4.00       0.00       0.00       3.85       0.00       0.17       0.17        0.24    50.82   0.042
  05_115                     4.00       0.00       0.00       3.84       0.00       0.21       0.21        0.19    44.39   0.053
  05_116                     4.00       0.00       0.00       3.94       0.00       0.07       0.07        0.39    92.79   0.016
  05_117                     4.00       0.00       0.00       3.87       0.00       0.14       0.14        0.28    61.18   0.035
  05_118                     4.00       0.00       0.00       3.95       0.00       0.05       0.05        0.42    99.50   0.013
  05_119                     4.00       0.00       0.00       3.85       0.00       0.17       0.17        0.24    51.17   0.042
  05_120                     4.00       0.00       0.00       3.86       0.00       0.15       0.15        0.27    57.30   0.037
  05_121                     4.00       0.00       0.00       3.86       0.00       0.16       0.16        0.26    53.73   0.039
  05_122                     4.00       0.00       0.00       3.93       0.00       0.07       0.07        0.38    90.02   0.018
  05_123                     4.00       0.00       0.00       3.89       0.00       0.12       0.12        0.31    70.30   0.029
  05_124                     4.00       0.00       0.00       3.80       0.00       0.26       0.26        0.14    35.11   0.065
  05_125                     4.00       0.00       0.00       3.89       0.00       0.12       0.12        0.30    68.10   0.030
  05_126                     4.00       0.00       0.00       3.86       0.00       0.15       0.15        0.27    56.88   0.037
  05_127                     4.00       0.00       0.00       3.80       0.00       0.26       0.26        0.14    34.91   0.065
  05_128                     4.00       0.00       0.00       3.77       0.00       0.29       0.29        0.10    26.64   0.074
  05_129                     4.00       0.00       0.00       3.87       0.00       0.14       0.14        0.28    60.52   0.035
  05_130                     4.00       0.00       0.00       3.87       0.00       0.14       0.14        0.28    61.25   0.035
  05_131                     4.00       0.00       0.00       3.79       0.00       0.27       0.27        0.12    31.52   0.069
  05_132                     4.00       0.00       0.00       3.84       0.00       0.21       0.21        0.20    45.13   0.052
  05_133                     4.00       0.00       0.00       3.86       0.00       0.18       0.18        0.23    49.27   0.045
  05_134                     4.00       0.00       0.00       3.88       0.00       0.13       0.13        0.30    66.32   0.032
  05_135                     4.00       0.00       0.00       3.93       0.00       0.08       0.08        0.37    87.72   0.019
  05_136                     4.00       0.00       0.00       3.95       0.00       0.05       0.05        0.42    99.39   0.013
  05_137                     4.00       0.00       0.00       3.88       0.00       0.13       0.13        0.28    62.61   0.034
  05_138                     4.00       0.00       0.00       3.89       0.00       0.11       0.11        0.31    71.18   0.029
  05_139                     4.00       0.00       0.00       3.87       0.00       0.14       0.14        0.28    61.10   0.035
  05_140                     4.00       0.00       0.00       3.86       0.00       0.19       0.19        0.22    48.13   0.047
  05_141                     4.00       0.00       0.00       3.87       0.00       0.14       0.14        0.28    60.38   0.035
  05_142                     4.00       0.00       0.00       3.88       0.00       0.13       0.13        0.29    64.96   0.032
  05_143                     4.00       0.00       0.00       3.85       0.00       0.16       0.16        0.25    52.15   0.041
  05_144                     4.00       0.00       0.00       3.84       0.00       0.20       0.20        0.20    45.58   0.051
  05_145                     4.00       0.00       0.00       3.84       0.00       0.21       0.21        0.20    45.08   0.052
  05_146                     4.00       0.00       0.00       3.81       0.00       0.24       0.24        0.16    38.37   0.061
  05_147                     4.00       0.00       0.00       3.82       0.00       0.23       0.23        0.17    40.91   0.058
  05_148                     4.00       0.00       0.00       3.91       0.00       0.10       0.10        0.34    77.85   0.025
  05_149                     4.00       0.00       0.00       3.85       0.00       0.17       0.17        0.24    50.77   0.043
  05_150                     4.00       0.00       0.00       3.88       0.00       0.13       0.13        0.29    63.86   0.033
  05_151                     4.00       0.00       0.00       3.93       0.00       0.08       0.08        0.37    87.98   0.019
  05_152                     4.00       0.00       0.00       3.92       0.00       0.08       0.08        0.36    84.69   0.021
  05_153                     4.00       0.00       0.00       3.82       0.00       0.24       0.24        0.16    39.66   0.059
  05_154                     4.00       0.00       0.00       0.00       0.00       3.96       3.96        0.54    27.63   0.989
  05_157                     4.00       0.00       0.00       3.77       0.00       0.30       0.30        0.10    26.25   0.074
  05_158                     4.00       0.00       0.00       0.00       0.00       3.95       3.95       33.37   978.46   0.988
  05_159                     4.00       0.00       0.00       3.92       0.00       0.08       0.08        0.36    85.36   0.021
  05_160                     4.00       0.00       0.00       3.95       0.00       0.05       0.05        0.42    98.30   0.013
  05_161                     4.00       0.00       0.00       3.91       0.00       0.10       0.10        0.34    77.80   0.025
  05_162                     4.00       0.00       0.00       3.94       0.00       0.06       0.06        0.40    94.86   0.015
  05_163                     4.00       0.00       0.00       0.00       0.00       3.96       3.96        0.54    27.63   0.989
  
  
  ******************
  Node Depth Summary
  ******************
  
  ---------------------------------------------------------------------------------
                                 Average  Maximum  Maximum  Time of Max    Reported
                                   Depth    Depth      HGL   Occurrence   Max Depth
  Node                 Type         Feet     Feet     Feet  days hr:min        Feet
  ---------------------------------------------------------------------------------
  200                  JUNCTION     0.01     0.47  4674.47     0  12:07        0.43
  201                  JUNCTION     0.04     0.83  4636.83     0  12:08        0.81
  202                  JUNCTION     0.01     0.30  4606.30     0  12:07        0.28
  203                  JUNCTION     1.64     1.85     1.85     3  06:00        1.85
  205                  JUNCTION     0.00     0.27  4590.27     0  12:06        0.26
  206                  JUNCTION     0.01     0.29  4598.29     0  12:07        0.27
  207                  JUNCTION     0.10     1.65  4582.65     0  12:09        1.63
  208                  JUNCTION     0.02     2.50  4623.06     0  11:59        2.50
  209                  JUNCTION     1.64     5.35  4609.61     0  12:10        5.34
  212                  JUNCTION     4.75     5.25  4611.64     2  00:56        5.25
  213                  JUNCTION     0.89     1.02  4596.02     0  12:56        1.00
  214                  JUNCTION     0.02     1.05  4620.05     0  12:06        1.05
  215                  JUNCTION     5.42     6.00  4596.00     0  12:05        6.00
  216                  JUNCTION     0.01     0.46  4581.46     0  12:09        0.45
  217                  JUNCTION     1.83     3.75  4580.75     0  12:12        3.63
  218                  JUNCTION     0.14     2.02  4573.02     0  12:24        2.01
  219                  JUNCTION     0.01     0.44  4579.44     0  12:13        0.43
  220                  JUNCTION     0.22     2.04  4573.04     0  12:24        2.03
  221                  JUNCTION     2.25     6.00  4573.00     0  12:23        6.00
  222                  JUNCTION     0.11     0.50  4569.50     0  12:36        0.50
  223                  JUNCTION     0.08     0.28  4563.28     0  12:44        0.28
  224                  JUNCTION     1.16     1.84  4560.84     0  13:26        1.83
  225                  JUNCTION     3.41     4.34  4560.84     0  13:33        4.34
  226                  JUNCTION     0.26     0.84  4560.84     0  13:33        0.84
  227                  JUNCTION     1.99     2.59  4553.59     3  06:00        2.59
  228                  JUNCTION     0.00     0.00  4557.00     0  00:00        0.00
  230                  JUNCTION     0.00     0.20  4540.20     0  12:06        0.19
  231                  JUNCTION     0.08     3.24     3.24     0  11:54        3.10
  232                  JUNCTION     0.00     0.08  4563.08     0  12:06        0.07
  233                  JUNCTION     0.14     0.21  4587.19     0  15:46        0.21
  234                  JUNCTION     0.45     1.40  4586.03     0  12:11        1.37
  235                  JUNCTION     0.64     1.75  4592.06     0  11:55        1.75
  236                  JUNCTION     0.01     0.69  4591.69     0  11:58        0.67
  237                  JUNCTION     0.62     1.42  4585.84     0  12:08        1.40
  238                  JUNCTION     0.10     0.83  4585.83     0  12:09        0.81
  239                  JUNCTION     0.14     1.16  4578.16     0  12:08        1.15
  240                  JUNCTION     0.00     0.08  4658.08     0  12:09        0.08
  241                  JUNCTION     0.97     4.39  4566.35     0  12:06        4.28
  242                  JUNCTION     0.00     0.16  4563.16     0  12:06        0.16
  243                  JUNCTION     4.50     5.52  4560.84     0  13:38        5.52
  244                  JUNCTION     0.11     3.46  4566.37     0  12:06        3.36
  245                  JUNCTION     0.00     0.45  4568.45     0  12:02        0.41
  246                  JUNCTION     3.92     4.34  4524.34     1  00:00        4.34
  247                  JUNCTION     0.00     0.07  4566.07     0  12:11        0.07
  248                  JUNCTION     0.00     0.00  4606.00     0  00:00        0.00
  249                  JUNCTION     0.00     0.00  4601.00     0  00:00        0.00
  250                  JUNCTION     0.00     0.00  4584.55     0  00:00        0.00
  251                  JUNCTION     0.02     0.31  4560.31     0  12:06        0.30
  252                  JUNCTION     0.02     1.50  4596.86     0  11:57        1.50
  253                  JUNCTION     0.00     0.12  4549.12     0  12:00        0.12
  254                  JUNCTION     0.04     0.05  4545.83     0  13:23        0.05
  255                  JUNCTION     0.01     0.63  4537.63     0  12:06        0.59
  256                  JUNCTION     0.03     0.75  4543.75     0  12:09        0.75
  257                  JUNCTION     0.01     0.73  4530.73     0  12:10        0.72
  258                  JUNCTION     0.89     2.06  4530.09     0  12:12        2.03
  259                  JUNCTION     0.01     1.05  4530.05     0  12:12        1.03
  260                  JUNCTION     0.02     0.73  4526.73     0  12:15        0.73
  261                  JUNCTION     0.39     4.37  4530.07     0  12:13        4.32
  262                  JUNCTION     0.05     2.00  4546.00     0  11:57        2.00
  263                  JUNCTION     0.01     1.05  4545.05     0  12:03        1.05
  264                  JUNCTION     0.01     2.00  4613.00     0  12:00        1.67
  265                  JUNCTION     0.01     0.77  4532.77     0  12:06        0.76
  266                  JUNCTION     3.66     5.00  4520.00     0  12:32        5.00
  267                  JUNCTION     0.02     2.26  4530.26     0  12:02        2.07
  268                  JUNCTION     0.02     2.00  4536.00     0  11:59        2.00
  269                  JUNCTION     0.06     1.28  4520.28     0  12:18        1.27
  270                  JUNCTION     0.06     1.02  4520.02     0  12:06        1.01
  271                  JUNCTION     1.69     2.85  4513.85     0  12:46        2.84
  272                  JUNCTION     0.02     2.00  4533.00     0  11:58        2.00
  273                  JUNCTION     0.06     2.91  4526.91     0  12:10        2.90
  274                  JUNCTION     0.03     2.00  4527.00     0  11:58        2.00
  275                  JUNCTION     0.95     1.50  4528.83     0  11:56        1.50
  276                  JUNCTION     0.00     0.00  4530.10     0  00:00        0.00
  277                  JUNCTION     0.06     0.93  4529.93     0  12:12        0.78
  278                  JUNCTION     0.48     1.39  4529.93     0  12:10        1.38
  279                  JUNCTION     0.03     0.96  4529.96     0  12:04        0.96
  280                  JUNCTION     0.04     3.04  4522.20     0  12:06        2.98
  281                  JUNCTION     0.06     1.99  4520.99     0  12:08        1.97
  282                  JUNCTION     0.95     1.06  4511.06     3  06:00        1.06
  283                  JUNCTION     0.00     0.00  4513.47     0  00:00        0.00
  284                  JUNCTION     2.58     4.00  4513.00     0  14:00        4.00
  285                  JUNCTION     1.85     2.06  4511.06     3  05:41        2.06
  286                  JUNCTION     3.56     5.40  4513.40     0  19:26        5.40
  287                  JUNCTION     5.09     6.95  4513.40     0  19:24        6.95
  288                  JUNCTION     0.31     0.34  4506.34     0  19:40        0.34
  289                  JUNCTION     0.53     0.77  4503.08     0  14:42        0.77
  290                  JUNCTION     0.02     0.18  4506.40     0  12:04        0.18
  291                  JUNCTION     0.04     0.39  4503.39     0  13:46        0.39
  292                  JUNCTION     0.04     0.73  4513.55     0  12:47        0.73
  293                  JUNCTION     0.01     0.19  4510.89     0  12:06        0.19
  294                  JUNCTION     0.29     2.44  4510.44     0  13:19        2.44
  295                  JUNCTION     0.12     2.28  4510.43     0  13:19        2.28
  296                  JUNCTION     0.07     0.76  4507.76     0  13:38        0.76
  297                  JUNCTION     2.14     2.43  4495.43     1  00:06        2.43
  298                  JUNCTION     0.31     0.41  4495.41     1  00:15        0.41
  299                  JUNCTION     2.82     5.55  4450.55     3  06:00        5.55
  300                  JUNCTION     0.00     0.00  4473.00     0  00:00        0.00
  302                  JUNCTION     0.08     3.00  4512.28     0  12:03        3.00
  303                  JUNCTION     0.02     0.28  4507.28     0  12:10        0.27
  304                  JUNCTION     0.00     0.07  4459.05     0  12:20        0.07
  305                  JUNCTION     0.01     2.04  4553.04     0  12:00        1.97
  306                  JUNCTION     0.00     0.27  4540.28     0  12:06        0.27
  308                  JUNCTION     0.00     0.00  4529.87     0  00:00        0.00
  310                  JUNCTION     0.00     0.00  4533.00     0  00:00        0.00
  311                  JUNCTION     0.03     3.00  4523.00     0  12:00        3.00
  312                  JUNCTION     0.02     0.19  4521.19     0  12:10        0.19
  313                  JUNCTION     0.59     2.75  4514.75     0  12:07        2.72
  314                  JUNCTION     0.09     0.65  4625.65     0  12:11        0.64
  315                  JUNCTION     0.11     0.86  4625.86     0  12:11        0.85
  316                  JUNCTION     0.00     0.00  4611.00     0  12:15        0.00
  317                  JUNCTION     0.00     0.00  4634.00     0  00:00        0.00
  318                  JUNCTION     0.00     0.00  4636.89     0  00:00        0.00
  320                  JUNCTION     3.61     4.04  4596.01     0  12:57        4.02
  322                  JUNCTION     0.50     0.55  4583.90     0  12:11        0.55
  327                  JUNCTION     0.00     0.00  4615.00     0  00:00        0.00
  328                  JUNCTION     1.79     2.00  4596.00     0  12:55        2.00
  329                  JUNCTION     0.01     0.90  4537.04     0  12:06        0.87
  330                  JUNCTION     0.02     2.20  4550.20     0  12:03        2.18
  331                  JUNCTION     0.00     0.08  4569.68     0  11:57        0.07
  332                  JUNCTION     0.04     0.48  4563.48     0  12:19        0.48
  333                  JUNCTION     5.34     6.57     6.57     3  06:00        6.57
  334                  JUNCTION     0.00     0.00  4533.00     0  00:00        0.00
  335                  JUNCTION     2.50     3.82  4534.89     0  12:08        3.78
  336                  JUNCTION     0.01     0.62  4534.45     0  12:09        0.61
  301                  OUTFALL      0.01     0.07     0.07     0  12:20        0.07
  OFALL-10             OUTFALL      0.02     2.16     2.16     0  11:54        1.05
  210                  DIVIDER      0.00     0.00  4620.00     0  00:00        0.00
  229                  DIVIDER      0.06     1.15  4549.15     0  12:10        1.14
  DIV-10               DIVIDER      3.38     5.84  4562.43     0  12:08        5.78
  204                  STORAGE      1.93     2.99  4625.99     0  12:10        2.99
  211                  STORAGE      1.81     2.00  4637.00     0  12:17        2.00
  307                  STORAGE      0.82     0.91  4530.91     1  22:35        0.91
  309                  STORAGE      0.47     0.52  4516.52     3  06:00        0.52
  319                  STORAGE      0.01     0.75  4617.75     0  12:06        0.74
  321                  STORAGE      2.63     2.90  4583.90     0  12:11        2.90
  323                  STORAGE      1.99     2.20  4601.20     0  12:11        2.20
  324                  STORAGE      1.94     2.14  4533.14     0  13:37        2.14
  325                  STORAGE      1.24     1.37  4528.37     0  12:11        1.37
  326                  STORAGE      0.32     0.85  4509.85     0  12:13        0.85
  
  
  *******************
  Node Inflow Summary
  *******************
  
  -------------------------------------------------------------------------------------------------
                                  Maximum  Maximum                  Lateral       Total        Flow
                                  Lateral    Total  Time of Max      Inflow      Inflow     Balance
                                   Inflow   Inflow   Occurrence      Volume      Volume       Error
  Node                 Type           CFS      CFS  days hr:min    10^6 gal    10^6 gal     Percent
  -------------------------------------------------------------------------------------------------
  200                  JUNCTION     61.53    61.53     0  12:06       0.293       0.293      -3.171
  201                  JUNCTION     81.22   120.57     0  12:06       0.361       0.663      -1.347
  202                  JUNCTION     47.50    58.70     0  12:06       0.224       0.646      -1.543
  203                  JUNCTION     36.38   101.44     0  12:07       0.151        0.93  929530.297 gal
  205                  JUNCTION     48.38    48.38     0  12:00       0.231       0.237      -6.188
  206                  JUNCTION     52.69   101.16     0  12:06       0.263       0.919      -1.687
  207                  JUNCTION     64.71    72.30     0  12:06       0.303       0.389       0.534
  208                  JUNCTION     46.74    46.74     0  12:00       0.218       0.218      -0.067
  209                  JUNCTION     55.41    91.27     0  12:06       0.273        0.48      13.903
  212                  JUNCTION     92.79   141.40     0  12:06       0.406       0.689  688990.972 gal
  213                  JUNCTION      0.00    44.02     0  12:05           0       0.572      16.525
  214                  JUNCTION      0.00    36.42     0  11:59           0       0.197      -5.148
  215                  JUNCTION      0.00    79.28     0  12:07           0        0.85      16.475
  216                  JUNCTION      0.00    32.56     0  12:09           0       0.387      -0.320
  217                  JUNCTION      0.00    32.52     0  12:09           0       0.388       6.250
  218                  JUNCTION      0.00    59.51     0  12:06           0        1.21       0.051
  219                  JUNCTION      0.00    28.77     0  12:12           0       0.365      -0.686
  220                  JUNCTION      0.00    51.23     0  12:11           0        1.18       0.752
  221                  JUNCTION     50.82    58.51     0  12:05       0.252        1.46       5.588
  222                  JUNCTION      0.00     5.44     0  12:36           0        1.24       0.106
  223                  JUNCTION      0.00     5.45     0  12:40           0        1.24       0.145
  224                  JUNCTION      0.00    16.03     0  12:15           0        1.26       1.105
  225                  JUNCTION      0.00    35.70     0  12:14           0        1.37       6.893
  226                  JUNCTION      0.00    35.89     0  12:13           0        1.46       0.279
  227                  JUNCTION      0.00     6.14     0  12:06           0       0.125  124522.387 gal
  228                  JUNCTION      0.00     0.00     0  00:00           0           0       0.000 gal
  230                  JUNCTION     87.72    96.13     0  12:06       0.386       0.709      -0.389
  231                  JUNCTION      0.00    94.41     0  12:06           0       0.712     -33.532
  232                  JUNCTION     86.22    87.99     0  12:06        0.38       0.624      -0.060
  233                  JUNCTION     99.50   110.78     0  12:06       0.434       0.834      57.699
  234                  JUNCTION      0.00    10.66     0  12:00           0         0.6       1.828
  235                  JUNCTION     44.39    44.39     0  12:00       0.201       0.203       0.540
  236                  JUNCTION      0.00     9.98     0  11:56           0       0.068      -6.381
  237                  JUNCTION      0.00    37.83     0  12:01           0       0.698       6.053
  238                  JUNCTION     51.17    51.17     0  12:00       0.255       0.913      -1.077
  239                  JUNCTION      0.00    26.07     0  12:09           0       0.814      -0.322
  240                  JUNCTION     61.18    61.18     0  12:06       0.291       0.291     -27.182
  241                  JUNCTION     53.73    75.74     0  12:05       0.267       0.414       2.343
  242                  JUNCTION      0.00    69.60     0  12:06           0       0.394       0.003
  243                  JUNCTION      0.00    65.71     0  12:07           0       0.409     101.471
  244                  JUNCTION      0.00    30.55     0  12:00           0       0.149       0.913
  245                  JUNCTION     34.91    34.91     0  12:00       0.143       0.143      -0.959
  246                  JUNCTION     60.52    69.92     0  12:06       0.289       0.367  367160.470 gal
  247                  JUNCTION      0.00     1.16     0  12:02           0     0.00618       4.505
  248                  JUNCTION      0.00     0.00     0  00:00           0           0       0.000 gal
  249                  JUNCTION      0.00     0.00     0  00:00           0           0       0.000 gal
  250                  JUNCTION      0.00     0.00     0  00:00           0           0       0.000 gal
  251                  JUNCTION     90.02    90.02     0  12:06       0.395        1.72      -1.334
  252                  JUNCTION     61.25    61.25     0  12:06       0.292       0.292       0.087
  253                  JUNCTION     35.11    35.11     0  12:00       0.144       0.144      -0.769
  254                  JUNCTION      0.00     0.52     0  12:00           0      0.0027    2696.703 gal
  255                  JUNCTION    134.42   144.16     0  12:06       0.624       0.761      -3.486
  256                  JUNCTION      0.00    33.79     0  12:00           0       0.142       3.460
  257                  JUNCTION      0.00   128.74     0  12:07           0       0.789       0.063
  258                  JUNCTION     62.61   109.11     0  12:07       0.296        1.08       5.711
  259                  JUNCTION      0.00   108.36     0  12:08           0        1.03      -0.001
  260                  JUNCTION      0.00   132.91     0  12:13           0        1.75       0.252
  261                  JUNCTION      0.00   237.18     0  12:08           0        1.77       1.431
  262                  JUNCTION     49.27    74.44     0  12:00       0.239       0.362       0.247
  263                  JUNCTION     56.88   105.30     0  12:04       0.277       0.573      -0.320
  264                  JUNCTION     31.52    31.52     0  12:00       0.125       0.125      -0.543
  265                  JUNCTION     71.18    71.18     0  12:06       0.325       0.325      -0.527
  266                  JUNCTION      0.00   138.98     0  12:04           0        2.52      59.729
  267                  JUNCTION     48.13    65.18     0  12:00       0.229       0.332      -2.710
  268                  JUNCTION     61.10    61.10     0  12:06       0.291       0.291      -0.080
  269                  JUNCTION      0.00   129.82     0  12:15           0        1.74      -1.341
  270                  JUNCTION    125.34   141.24     0  12:06       0.593         2.4      -3.904
  271                  JUNCTION      0.00    61.56     0  12:06           0        2.09      13.019
  272                  JUNCTION     45.58    45.58     0  12:00        0.21        0.21       0.105
  273                  JUNCTION      0.00    38.82     0  12:02           0       0.226      -1.870
  274                  JUNCTION     52.15    52.15     0  12:06       0.262       0.262       0.049
  275                  JUNCTION     38.37    38.37     0  12:00       0.162       0.163       1.634
  276                  JUNCTION      0.00     0.00     0  00:00           0           0       0.000 gal
  277                  JUNCTION      0.00     7.11     0  12:05           0      0.0452       6.903
  278                  JUNCTION      0.00     5.96     0  12:08           0      0.0174      15.603
  279                  JUNCTION     45.08    45.08     0  12:00       0.206       0.231      -7.521
  280                  JUNCTION     77.85    77.85     0  12:06       0.349       0.349      -0.528
  281                  JUNCTION      0.00   108.35     0  12:06           0        0.57      -1.110
  282                  JUNCTION     87.98   139.89     0  12:06       0.387         1.1   12283.123
  283                  JUNCTION      0.00     0.00     0  00:00           0           0       0.000 gal
  284                  JUNCTION     27.63    27.63     0  12:00       0.536        1.99       0.093
  285                  JUNCTION      0.00     1.89     0  12:05           0     0.00892      69.847
  286                  JUNCTION      0.00   277.03     0  12:07           0        8.69       6.105
  287                  JUNCTION     26.25   907.09     0  12:07       0.101        40.6       9.085
  288                  JUNCTION      0.00    17.65     0  19:24           0        29.1       0.281
  289                  JUNCTION     85.36   114.60     0  12:06       0.376        31.7       1.546
  290                  JUNCTION     39.66    39.66     0  12:00        0.17        2.31      -0.350
  291                  JUNCTION      0.00    28.87     0  12:04           0        2.32      -0.009
  292                  JUNCTION      0.00    48.01     0  12:46           0        1.85       0.010
  293                  JUNCTION     63.86    63.86     0  12:06         0.3        2.15      -0.060
  294                  JUNCTION      0.00    63.63     0  12:06           0        2.15      -0.266
  295                  JUNCTION      0.00    51.62     0  12:07           0        2.15       0.589
  296                  JUNCTION      0.00    28.62     0  13:25           0        2.14       0.084
  297                  JUNCTION     98.30   117.89     0  12:06       0.429        31.6      21.081
  298                  JUNCTION      0.00    18.31     0  23:03           0        26.1       1.252
  299                  JUNCTION     77.80    77.80     0  12:06       0.348        26.126147422.502 gal
  300                  JUNCTION      0.00     0.00     0  00:00           0           0       0.000 gal
  302                  JUNCTION     94.86    94.86     0  12:06       0.414       0.588      -0.041
  303                  JUNCTION      0.00    42.59     0  12:06           0       0.386       0.072
  304                  JUNCTION      0.00    17.15     0  12:10           0       0.385       0.122
  305                  JUNCTION     45.13    45.13     0  12:00       0.207       0.207      -0.662
  306                  JUNCTION     40.91    40.91     0  12:00       0.178       0.178     -12.369
  308                  JUNCTION      0.00     0.00     0  00:00           0           0       0.000 gal
  310                  JUNCTION      0.00     0.00     0  00:00           0           0       0.000 gal
  311                  JUNCTION     84.69    84.69     0  12:06       0.374       0.394       0.001
  312                  JUNCTION      0.00    20.46     0  12:07           0      0.0989     -36.635
  313                  JUNCTION    978.46   978.46     0  12:06        33.4        33.4      -1.109
  314                  JUNCTION      0.00     2.73     0  12:11           0       0.112       0.030
  315                  JUNCTION      0.00     2.87     0  12:09           0       0.113       0.064
  316                  JUNCTION      0.00     2.72     0  12:12           0       0.112       0.192
  317                  JUNCTION      0.00     0.00     0  00:00           0           0       0.000 gal
  318                  JUNCTION      0.00     0.00     0  00:00           0           0       0.000 gal
  320                  JUNCTION      0.00    45.53     0  12:07           0       0.502     546.294
  322                  JUNCTION      0.00     0.96     0  12:08           0     0.00287     223.277
  327                  JUNCTION      0.00     0.00     0  00:00           0           0       0.000 gal
  328                  JUNCTION      0.00     3.42     0  12:57           0      0.0319       3.608
  329                  JUNCTION      0.00   106.39     0  12:05           0       0.575       0.010
  330                  JUNCTION      0.00    45.59     0  12:01           0       0.208       0.875
  331                  JUNCTION      0.00    10.03     0  11:57           0       0.072       0.019
  332                  JUNCTION      0.00    39.18     0  12:07           0       0.253       3.497
  333                  JUNCTION      0.00   166.60     0  12:06           0        2.24 2237428.791 gal
  334                  JUNCTION      0.00     0.00     0  00:00           0           0       0.000 gal
  335                  JUNCTION      0.00   104.15     0  12:06           0       0.575      36.861
  336                  JUNCTION      0.00    92.60     0  12:08           0        0.42       0.019
  301                  OUTFALL      27.63    27.63     0  12:00       0.536       0.921       0.000
  OFALL-10             OUTFALL      99.39   303.44     0  11:54       0.433         1.5       0.000
  210                  DIVIDER       0.00     0.00     0  00:00           0           0       0.000 gal
  229                  DIVIDER      70.30    70.30     0  12:06       0.322       0.322      -0.447
  DIV-10               DIVIDER       0.00    69.60     0  12:06           0       0.403       0.904
  204                  STORAGE      46.34    46.34     0  12:00       0.215       0.216       0.381
  211                  STORAGE      92.30    92.30     0  12:06       0.404       0.404       0.126
  307                  STORAGE      50.77    78.08     0  12:05       0.251       0.455     277.670
  309                  STORAGE       0.00    41.68     0  12:00           0       0.257     244.142
  319                  STORAGE      52.83    52.83     0  12:06       0.264       0.264     -10.312
  321                  STORAGE      57.30    57.30     0  12:06       0.279        0.28       0.250
  323                  STORAGE      26.64    26.64     0  12:00       0.102       0.102       0.335
  324                  STORAGE       0.00    15.13     0  11:59           0      0.0922       0.134
  325                  STORAGE       0.00     7.37     0  11:56           0      0.0457       0.741
  326                  STORAGE       0.00    41.68     0  12:03           0       0.196       0.068
  
  
  **********************
  Node Surcharge Summary
  **********************
  
  Surcharging occurs when water rises above the top of the highest conduit.
  ---------------------------------------------------------------------
                                               Max. Height   Min. Depth
                                   Hours       Above Crown    Below Rim
  Node                 Type      Surcharged           Feet         Feet
  ---------------------------------------------------------------------
  208                  JUNCTION        0.12          0.000        0.000
  215                  JUNCTION       39.85          0.000        0.000
  221                  JUNCTION        0.49          0.000        0.000
  235                  JUNCTION        0.23          0.000        0.000
  252                  JUNCTION        0.22          0.000        0.000
  262                  JUNCTION        0.22          0.000        0.000
  264                  JUNCTION        0.04          0.000        0.000
  268                  JUNCTION        0.15          0.000        0.000
  272                  JUNCTION        0.18          0.000        0.000
  274                  JUNCTION        0.21          0.000        0.000
  284                  JUNCTION       15.89          0.000        0.000
  302                  JUNCTION        0.05          0.000        0.000
  328                  JUNCTION       41.86          0.000        0.000
  
  
  *********************
  Node Flooding Summary
  *********************
  
  Flooding refers to all water that overflows a node, whether it ponds or not.
  --------------------------------------------------------------------------
                                                             Total   Maximum
                                 Maximum   Time of Max       Flood    Ponded
                        Hours       Rate    Occurrence      Volume     Depth
  Node                 Flooded       CFS   days hr:min    10^6 gal      Feet
  --------------------------------------------------------------------------
  208                     0.12     10.94      0  12:00       0.022     0.000
  215                     8.99     35.70      0  12:07       0.214     0.000
  221                     0.48     31.93      0  12:25       0.106     0.000
  235                     0.23     34.91      0  12:00       0.134     0.000
  252                     0.22     52.03      0  12:06       0.220     0.000
  262                     0.22     65.00      0  12:00       0.272     0.000
  264                     0.04      5.31      0  12:00       0.003     0.000
  268                     0.15     30.38      0  12:06       0.097     0.000
  272                     0.18     27.62      0  12:00       0.088     0.000
  274                     0.21     41.14      0  12:06       0.158     0.000
  275                     0.23     31.53      0  12:00       0.115     0.000
  284                    15.87      4.14      0  18:23       1.429     0.000
  302                     0.05     10.66      0  12:06       0.007     0.000
  311                     0.12     22.58      0  12:06       0.038     0.000
  328                    40.24      3.42      0  12:57       0.019     0.000
  
  
  **********************
  Storage Volume Summary
  **********************
  
  ------------------------------------------------------------------------------------------------
                         Average    Avg   Evap  Exfil     Maximum    Max    Time of Max    Maximum
                          Volume   Pcnt   Pcnt   Pcnt      Volume   Pcnt     Occurrence    Outflow
  Storage Unit          1000 ftł   Full   Loss   Loss    1000 ftł   Full    days hr:min        CFS
  ------------------------------------------------------------------------------------------------
  204                     13.354   18.8    0.0    0.0      27.709   39.1       0  12:10       2.87
  211                     48.718   20.2    0.0    0.0      53.915   22.4       0  12:17       0.00
  307                     14.495    3.6    0.0    0.0      16.087    4.0       1  22:35       0.77
  309                      8.929    1.5    0.0    0.0       9.970    1.7       3  06:00       0.00
  319                      0.010    0.0    0.0    0.0       1.522    2.5       0  12:06      50.80
  321                     33.359   11.8    0.0    0.0      36.900   13.1       0  12:11       0.96
  323                     12.355   17.2    0.0    0.0      13.656   19.0       0  12:11       0.00
  324                     11.120   14.5    0.0    0.0      12.311   16.0       0  13:37       0.00
  325                      5.377    0.9    0.0    0.0       5.950    1.0       0  12:11       0.31
  326                      4.457    0.8    0.0    0.0      26.183    4.5       0  12:13       2.23
  
  
  ***********************
  Outfall Loading Summary
  ***********************
  
  -----------------------------------------------------------
                         Flow       Avg       Max       Total
                         Freq      Flow      Flow      Volume
  Outfall Node           Pcnt       CFS       CFS    10^6 gal
  -----------------------------------------------------------
  301                   99.59      0.64     27.63       0.921
  OFALL-10              90.76      1.69    303.44       1.505
  -----------------------------------------------------------
  System                95.18      2.33    319.03       2.425
  
  
  ********************
  Link Flow Summary
  ********************
  
  -----------------------------------------------------------------------------
                                 Maximum  Time of Max   Maximum    Max/    Max/
                                  |Flow|   Occurrence   |Veloc|    Full    Full
  Link                 Type          CFS  days hr:min    ft/sec    Flow   Depth
  -----------------------------------------------------------------------------
  300                  CHANNEL     42.79     0  12:07      1.97    0.00    0.02
  301                  CONDUIT     87.94     0  12:08    >50.00    0.03    0.31
  302                  CONDUIT      2.44     0  12:15      0.07    0.00    0.23
  303                  CONDUIT      0.00     0  00:00      0.00    0.00    0.00
  304                  CONDUIT      0.00     0  00:00      0.00    0.00    0.45
  305                  CONDUIT     19.17     0  12:09      3.63    0.70    0.54
  306                  CONDUIT     36.42     0  11:59      9.97    0.80    0.71
  307                  CONDUIT     35.86     0  12:06      7.46    0.03    0.63
  308                  CONDUIT     50.60     0  12:07      3.77    0.00    0.03
  309                  CONDUIT     48.72     0  12:06      1.44    0.00    0.18
  310                  CONDUIT     44.02     0  12:05      2.95    0.12    0.58
  311                  CONDUIT     79.28     0  12:07      6.41    0.01    0.52
  312                  CHANNEL      8.11     0  12:07      1.32    0.00    0.12
  313                  CONDUIT     32.56     0  12:09      5.77    3.76    0.23
  314                  CONDUIT     28.77     0  12:12      4.33    0.21    0.52
  315                  CONDUIT     32.52     0  12:09      3.78    0.01    0.35
  316                  CONDUIT     28.31     0  12:13      3.20    0.01    0.20
  317                  CONDUIT     49.86     0  12:14      2.43    0.91    0.40
  318                  CONDUIT     42.56     0  12:06      0.47    0.01    0.67
  319                  CONDUIT      5.44     0  12:36      4.61    1.30    0.83
  320                  CONDUIT     15.45     0  12:15      0.74    0.00    0.31
  321                  CONDUIT      5.45     0  12:40      1.53    0.01    0.06
  322                  CONDUIT      5.45     0  12:44      3.66    0.01    0.21
  323                  CONDUIT     35.61     0  12:13      2.58    0.01    0.37
  324                  CONDUIT      5.36     0  13:33      1.28    0.16    0.07
  325                  CONDUIT      0.00     0  00:00      0.00    0.00    0.07
  326                  CONDUIT     10.46     0  12:09      1.36    0.01    0.11
  327                  CONDUIT     94.41     0  12:06     16.64    0.00    0.50
  328                  CONDUIT    302.66     0  11:54      3.80    1.47    0.31
  329                  CONDUIT      0.00     0  00:00      0.00    0.00    0.26
  330                  CONDUIT     39.18     0  12:07      4.62    0.02    0.16
  331                  CONDUIT     87.69     0  12:06     15.83    0.00    0.41
  332                  CONDUIT      9.98     0  11:56      3.14    0.46    0.70
  333                  CONDUIT     10.63     0  12:00      3.95    0.01    0.25
  334                  CONDUIT      0.57     0  15:46      3.70    0.02    0.39
  335                  CONDUIT      7.26     0  12:12      0.98    0.26    0.35
  336                  CONDUIT     35.58     0  12:01      1.19    0.01    0.28
  337                  CONDUIT     26.07     0  12:09      6.55    0.09    0.25
  338                  CONDUIT     26.73     0  12:10      5.85    0.17    0.34
  339                  CHANNEL     16.21     0  11:54      1.62    0.00    0.01
  340                  CONDUIT     69.60     0  12:06      5.91    0.13    0.28
  343                  CONDUIT     21.90     0  12:03      7.02    2.03    1.00
  344                  CONDUIT     35.89     0  12:13      2.73    0.08    0.53
  345                  CONDUIT     27.28     0  12:08      0.98    0.07    0.93
  346                  CONDUIT      0.34     0  12:11      0.04    0.00    0.44
  347                  CONDUIT      1.16     0  12:02      0.56    0.01    0.06
  348                  CONDUIT     28.52     0  12:02      6.44    0.04    0.38
  349                  CONDUIT      0.00     0  00:00      0.00    0.00    0.00
  350                  CONDUIT      0.00     0  00:00      0.00    0.00    0.36
  351                  CONDUIT      0.00     0  00:00      0.00    0.00    0.50
  352                  CONDUIT      6.14     0  12:06      3.95    0.00    0.13
  353                  CONDUIT     10.03     0  11:57     11.55    0.77    0.53
  354                  CONDUIT      0.00     0  00:00      0.00    0.00    0.00
  355                  CONDUIT      0.52     0  12:00      1.32    0.00    0.01
  356                  CONDUIT     33.79     0  12:00      8.53    0.00    0.08
  357                  CONDUIT     10.27     0  12:07      1.33    0.01    0.11
  358                  CONDUIT    128.74     0  12:07      4.82    0.06    0.13
  359                  CONDUIT     85.63     0  12:10      1.52    0.03    0.23
  360                  CONDUIT    108.36     0  12:08      2.35    0.02    0.25
  361                  CONDUIT    108.33     0  12:08      1.85    0.02    0.45
  362                  CONDUIT    132.91     0  12:13      2.87    0.22    0.32
  363                  CONDUIT      9.47     0  12:01      4.37   25.02    0.76
  364                  CONDUIT    106.39     0  12:05      9.01    0.20    0.27
  365                  CONDUIT     25.49     0  12:00      8.22    1.07    1.00
  366                  CONDUIT     71.05     0  12:06     13.27    0.07    0.56
  367                  CONDUIT     17.18     0  11:59      5.88    1.10    1.00
  368                  CONDUIT     65.96     0  12:04     11.60    0.55    0.58
  369                  CONDUIT    129.82     0  12:15      6.57    0.03    0.11
  370                  CONDUIT    122.30     0  12:18      0.89    0.01    0.38
  371                  CONDUIT     74.84     0  12:06      2.94    0.01    0.37
  372                  CONDUIT     61.56     0  12:06      3.16    0.01    0.31
  373                  CONDUIT     20.49     0  12:02      8.78    1.07    1.00
  374                  CONDUIT     18.83     0  12:01      5.24    1.33    1.00
  375                  CONDUIT     18.26     0  12:09      3.17    0.51    0.47
  376                  CONDUIT      0.00     0  00:00      0.00    0.00    0.50
  377                  CONDUIT      0.00     0  00:00      0.00    0.00    0.12
  378                  CONDUIT      5.96     0  12:08      3.71    0.14    0.38
  379                  CONDUIT      7.11     0  12:05      1.80    0.08    0.14
  380                  CONDUIT     31.56     0  12:04      6.17    0.02    0.36
  381                  CONDUIT     77.41     0  12:06      6.61    0.75    0.61
  382                  CONDUIT     62.37     0  12:09     10.33    0.03    0.23
  383                  CONDUIT      1.89     0  12:05      3.02    0.10    0.62
  384                  CONDUIT      0.00     0  00:00      0.00    0.00    0.50
  385                  CONDUIT      0.00     0  00:00      0.00    0.00    0.50
  386                  CONDUIT      5.57     0  12:02      1.77    0.92    1.00
  387                  CONDUIT    271.89     0  12:07      0.23    0.00    0.77
  388                  CONDUIT     17.65     0  19:24      9.23    2.51    0.59
  389                  CONDUIT     17.65     0  19:40      0.64    0.00    0.09
  390                  CONDUIT     28.87     0  12:04      4.69    0.01    0.05
  391                  CONDUIT     28.12     0  13:46      0.57    0.02    0.14
  392                  CONDUIT     48.01     0  12:46      2.94    0.26    0.74
  393                  CONDUIT     47.92     0  12:47      6.41    0.00    0.07
  394                  CONDUIT     63.63     0  12:06      6.44    0.01    0.32
  395                  CONDUIT     51.62     0  12:07      1.21    0.05    0.39
  396                  CONDUIT     28.62     0  13:25      9.56    1.03    0.80
  397                  CONDUIT     28.20     0  13:39      1.21    0.03    0.09
  398                  CONDUIT     18.31     0  23:03      0.45    0.01    0.18
  399                  CHANNEL     39.57     0  14:43      0.78    0.00    0.09
  400                  CHANNEL     18.27     1  00:15      0.79    0.00    0.16
  401                  CONDUIT      0.00     0  00:00      0.00    0.00    0.46
  402                  CHANNEL      0.00     0  00:00      0.00    0.00    0.00
  403                  CONDUIT     42.59     0  12:06     11.24    0.59    0.54
  404                  CHANNEL     10.74     0  12:20      9.81    0.00    0.00
  405                  CHANNEL     17.15     0  12:10      2.67    0.00    0.02
  406                  CONDUIT     45.59     0  12:01      8.25    0.63    0.58
  407                  CONDUIT     28.95     0  12:06      1.94    0.02    0.26
  408                  CONDUIT      0.00     0  00:00      0.00    0.00    0.00
  409                  CONDUIT      0.00     0  00:00      0.00    0.00    0.09
  410                  CONDUIT     20.46     0  12:07      5.41    0.23    0.53
  411                  CHANNEL      3.98     0  12:10      0.13    0.00    0.14
  412                  CONDUIT    898.58     0  12:07      2.10    0.37    0.84
  413                  CONDUIT      2.73     0  12:11      2.51    3.75    0.38
  414                  CONDUIT      0.13     0  12:15      0.13    0.00    0.03
  415                  CONDUIT      2.72     0  12:12     10.15    0.02    0.16
  417                  CONDUIT      0.00     0  00:00      0.00    0.00    0.00
  420                  CONDUIT     43.58     0  12:13      1.72    0.00    0.42
  421                  CONDUIT      0.00     0  00:00      0.00    0.00    0.18
  429                  CONDUIT      0.00     0  00:00      0.00    0.00    0.00
  430                  CONDUIT      0.00     0  00:00      0.00    0.00    0.00
  431                  CONDUIT      3.42     0  12:57      5.32    0.07    1.00
  432                  CONDUIT    104.15     0  12:06      4.72    0.10    0.58
  433                  CONDUIT     39.89     0  12:03      8.33    0.47    0.41
  434                  CONDUIT      9.88     0  11:57      5.52    0.00    0.51
  435                  CONDUIT     69.60     0  12:06      3.59    0.00    0.50
  436                  CONDUIT     48.64     0  12:08      2.13    0.13    0.73
  437                  CONDUIT      7.62     0  12:19      0.91    0.42    0.12
  438                  CONDUIT     79.29     0  12:06     31.43    0.01    0.51
  439                  CONDUIT      0.00     0  00:00      0.00    0.00    0.00
  440                  CONDUIT     92.60     0  12:08      2.98    0.07    0.55
  441                  CONDUIT     92.18     0  12:09      2.00    0.05    0.58
  416                  ORIFICE      2.87     0  12:09                      0.50
  419                  ORIFICE      2.09     0  12:06                      0.43
  422                  ORIFICE      0.96     0  12:08                      0.37
  423                  ORIFICE      0.00     0  00:00                      0.00
  424                  ORIFICE     15.13     0  11:59                      1.00
  425                  ORIFICE      7.37     0  11:56                      1.00
  426                  ORIFICE      0.00     0  00:00                      0.00
  427                  ORIFICE     41.68     0  12:00                      1.00
  428                  ORIFICE     41.68     0  12:03                      1.00
  418                  WEIR         0.00     0  00:00                      0.00
  
  
  ***************************
  Flow Classification Summary
  ***************************
  
  -------------------------------------------------------------------------------------
                      Adjusted    ---------- Fraction of Time in Flow Class ---------- 
                       /Actual         Up    Down  Sub   Sup   Up    Down  Norm  Inlet 
  Conduit               Length    Dry  Dry   Dry   Crit  Crit  Crit  Crit  Ltd   Ctrl  
  -------------------------------------------------------------------------------------
  300                     1.00   0.15  0.00  0.00  0.85  0.00  0.00  0.00  0.85  0.00
  301                     1.00   0.15  0.00  0.00  0.84  0.01  0.00  0.00  0.84  0.00
  302                     1.00   0.15  0.13  0.00  0.72  0.00  0.00  0.00  0.84  0.00
  303                     1.00   1.00  0.00  0.00  0.00  0.00  0.00  0.00  0.00  0.00
  304                     1.00   0.15  0.85  0.00  0.00  0.00  0.00  0.00  0.00  0.00
  305                     1.00   0.15  0.00  0.00  0.85  0.00  0.00  0.00  0.00  0.00
  306                     1.00   0.15  0.84  0.00  0.00  0.00  0.00  0.00  0.84  0.00
  307                     1.00   0.15  0.00  0.00  0.85  0.00  0.00  0.00  0.85  0.00
  308                     1.00   0.19  0.27  0.00  0.53  0.02  0.00  0.00  0.56  0.00
  309                     1.00   0.15  0.37  0.00  0.47  0.00  0.00  0.00  0.85  0.00
  310                     1.00   0.15  0.00  0.00  0.85  0.00  0.00  0.00  0.00  0.00
  311                     1.00   0.15  0.04  0.00  0.81  0.00  0.00  0.00  0.85  0.00
  312                     1.00   0.15  0.04  0.00  0.81  0.00  0.00  0.00  0.85  0.00
  313                     1.00   0.15  0.00  0.00  0.83  0.01  0.00  0.00  0.00  0.00
  314                     1.00   0.15  0.00  0.00  0.85  0.00  0.00  0.00  0.00  0.00
  315                     1.00   0.15  0.00  0.00  0.85  0.00  0.00  0.00  0.85  0.00
  316                     1.00   0.15  0.00  0.00  0.85  0.00  0.00  0.00  0.85  0.00
  317                     1.00   0.15  0.00  0.00  0.85  0.00  0.00  0.00  0.00  0.00
  318                     1.00   0.15  0.00  0.00  0.85  0.00  0.00  0.00  0.78  0.00
  319                     1.00   0.15  0.00  0.00  0.84  0.00  0.00  0.00  0.00  0.00
  320                     1.00   0.15  0.00  0.00  0.85  0.00  0.00  0.00  0.00  0.00
  321                     1.00   0.15  0.00  0.00  0.85  0.00  0.00  0.00  0.43  0.00
  322                     1.00   0.15  0.00  0.00  0.84  0.00  0.00  0.00  0.84  0.00
  323                     1.00   0.15  0.00  0.00  0.85  0.00  0.00  0.00  0.00  0.00
  324                     1.00   0.15  0.00  0.00  0.85  0.00  0.00  0.00  0.00  0.00
  325                     1.00   0.15  0.85  0.00  0.00  0.00  0.00  0.00  0.00  0.00
  326                     1.00   0.15  0.00  0.00  0.85  0.00  0.00  0.00  0.00  0.00
  327                     1.00   0.15  0.20  0.00  0.52  0.12  0.00  0.00  0.85  0.00
  328                     1.00   0.15  0.00  0.00  0.85  0.00  0.00  0.00  0.00  0.00
  329                     1.00   0.15  0.85  0.00  0.00  0.00  0.00  0.00  0.00  0.00
  330                     1.00   0.15  0.00  0.00  0.84  0.00  0.00  0.00  0.84  0.00
  331                     1.00   0.15  0.00  0.00  0.84  0.00  0.00  0.00  0.85  0.00
  332                     1.00   0.15  0.00  0.00  0.85  0.00  0.00  0.00  0.00  0.00
  333                     1.00   0.15  0.00  0.00  0.85  0.00  0.00  0.00  0.85  0.00
  334                     1.00   0.15  0.00  0.00  0.85  0.00  0.00  0.00  0.85  0.00
  335                     1.00   0.15  0.00  0.00  0.85  0.00  0.00  0.00  0.00  0.00
  336                     1.00   0.15  0.00  0.00  0.85  0.00  0.00  0.00  0.00  0.00
  337                     1.00   0.15  0.00  0.00  0.84  0.01  0.00  0.00  0.85  0.00
  338                     1.00   0.15  0.00  0.00  0.84  0.00  0.00  0.00  0.07  0.00
  339                     1.00   0.15  0.00  0.00  0.85  0.00  0.00  0.00  0.85  0.00
  340                     1.00   0.15  0.00  0.00  0.85  0.00  0.00  0.00  0.25  0.00
  343                     1.00   0.15  0.00  0.00  0.85  0.00  0.00  0.00  0.00  0.00
  344                     1.00   0.15  0.00  0.00  0.85  0.00  0.00  0.00  0.00  0.00
  345                     1.00   0.15  0.00  0.00  0.85  0.00  0.00  0.00  0.00  0.00
  346                     1.00   0.15  0.72  0.00  0.12  0.00  0.00  0.00  0.85  0.00
  347                     1.00   0.84  0.00  0.00  0.16  0.00  0.00  0.00  0.11  0.00
  348                     1.00   0.15  0.69  0.00  0.15  0.00  0.00  0.00  0.85  0.00
  349                     1.00   1.00  0.00  0.00  0.00  0.00  0.00  0.00  0.00  0.00
  350                     1.00   0.15  0.85  0.00  0.00  0.00  0.00  0.00  0.00  0.00
  351                     1.00   0.15  0.85  0.00  0.00  0.00  0.00  0.00  0.00  0.00
  352                     1.00   0.15  0.00  0.00  0.85  0.00  0.00  0.00  0.85  0.00
  353                     1.00   0.15  0.00  0.00  0.82  0.02  0.00  0.00  0.00  0.00
  354                     1.00   0.15  0.85  0.00  0.00  0.00  0.00  0.00  0.00  0.00
  355                     1.00   0.15  0.83  0.00  0.02  0.00  0.00  0.00  0.84  0.00
  356                     1.00   0.15  0.83  0.00  0.02  0.00  0.00  0.00  0.85  0.00
  357                     1.00   0.15  0.00  0.00  0.85  0.00  0.00  0.00  0.00  0.00
  358                     1.00   0.15  0.00  0.00  0.84  0.00  0.00  0.00  0.84  0.00
  359                     1.00   0.15  0.00  0.00  0.85  0.00  0.00  0.00  0.85  0.00
  360                     1.00   0.15  0.00  0.00  0.85  0.00  0.00  0.00  0.00  0.00
  361                     1.00   0.15  0.00  0.00  0.85  0.00  0.00  0.00  0.84  0.00
  362                     1.00   0.15  0.00  0.00  0.85  0.00  0.00  0.00  0.00  0.00
  363                     1.00   0.15  0.00  0.00  0.85  0.00  0.00  0.00  0.00  0.00
  364                     1.00   0.27  0.18  0.00  0.54  0.01  0.00  0.00  0.59  0.00
  365                     1.00   0.15  0.76  0.00  0.08  0.00  0.00  0.00  0.85  0.00
  366                     1.00   0.15  0.84  0.00  0.00  0.00  0.00  0.00  0.85  0.00
  367                     1.00   0.80  0.18  0.00  0.02  0.00  0.00  0.00  0.84  0.00
  368                     1.00   0.15  0.64  0.00  0.20  0.00  0.00  0.00  0.85  0.00
  369                     1.00   0.15  0.00  0.00  0.84  0.00  0.00  0.00  0.84  0.00
  370                     1.00   0.15  0.00  0.00  0.85  0.00  0.00  0.00  0.01  0.00
  371                     1.00   0.15  0.00  0.00  0.85  0.00  0.00  0.00  0.00  0.00
  372                     1.00   0.15  0.00  0.00  0.85  0.00  0.00  0.00  0.85  0.00
  373                     1.00   0.80  0.13  0.00  0.06  0.00  0.00  0.00  0.84  0.00
  374                     1.00   0.80  0.13  0.00  0.07  0.00  0.00  0.00  0.84  0.00
  375                     1.00   0.15  0.65  0.00  0.20  0.00  0.00  0.00  0.84  0.00
  376                     1.00   0.15  0.85  0.00  0.00  0.00  0.00  0.00  0.00  0.00
  377                     1.00   0.15  0.85  0.00  0.00  0.00  0.00  0.00  0.00  0.00
  378                     1.00   0.15  0.00  0.00  0.85  0.00  0.00  0.00  0.00  0.00
  379                     1.00   0.15  0.00  0.00  0.85  0.00  0.00  0.00  0.00  0.00
  380                     1.00   0.15  0.00  0.00  0.85  0.00  0.00  0.00  0.85  0.00
  381                     1.00   0.15  0.00  0.00  0.85  0.00  0.00  0.00  0.82  0.00
  382                     1.00   0.15  0.00  0.00  0.84  0.01  0.00  0.00  0.84  0.00
  383                     1.00   0.15  0.00  0.00  0.85  0.00  0.00  0.00  0.00  0.00
  384                     1.00   0.15  0.85  0.00  0.00  0.00  0.00  0.00  0.00  0.00
  385                     1.00   0.02  0.98  0.00  0.00  0.00  0.00  0.00  0.00  0.00
  386                     1.00   0.02  0.00  0.00  0.98  0.00  0.00  0.00  0.05  0.00
  387                     1.00   0.02  0.00  0.00  0.98  0.00  0.00  0.00  0.06  0.00
  388                     1.00   0.02  0.00  0.00  0.03  0.95  0.00  0.00  0.00  0.00
  389                     1.00   0.02  0.00  0.00  0.98  0.00  0.00  0.00  0.92  0.00
  390                     1.00   0.15  0.00  0.00  0.84  0.00  0.00  0.00  0.85  0.00
  391                     1.00   0.04  0.12  0.00  0.85  0.00  0.00  0.00  0.85  0.00
  392                     1.00   0.15  0.00  0.00  0.84  0.00  0.00  0.00  0.00  0.00
  393                     1.00   0.15  0.00  0.00  0.06  0.79  0.00  0.00  0.00  0.00
  394                     1.00   0.15  0.00  0.00  0.85  0.00  0.00  0.00  0.85  0.00
  395                     1.00   0.15  0.00  0.00  0.85  0.00  0.00  0.00  0.00  0.00
  396                     1.00   0.15  0.00  0.00  0.62  0.22  0.00  0.00  0.81  0.00
  397                     1.00   0.15  0.00  0.00  0.85  0.00  0.00  0.00  0.00  0.00
  398                     1.00   0.04  0.16  0.00  0.81  0.00  0.00  0.00  0.00  0.00
  399                     1.00   0.04  0.00  0.00  0.96  0.00  0.00  0.00  0.88  0.00
  400                     1.00   0.15  0.04  0.00  0.81  0.00  0.00  0.00  0.81  0.00
  401                     1.00   0.15  0.85  0.00  0.00  0.00  0.00  0.00  0.00  0.00
  402                     1.00   0.15  0.85  0.00  0.00  0.00  0.00  0.00  0.00  0.00
  403                     1.00   0.15  0.00  0.00  0.00  0.85  0.00  0.00  0.00  0.00
  404                     1.00   0.15  0.00  0.00  0.00  0.85  0.00  0.00  0.85  0.00
  405                     1.00   0.15  0.00  0.00  0.84  0.00  0.00  0.00  0.00  0.00
  406                     1.00   0.97  0.01  0.00  0.02  0.00  0.00  0.00  0.85  0.00
  407                     1.00   0.15  0.40  0.00  0.44  0.00  0.00  0.00  0.85  0.00
  408                     1.00   1.00  0.00  0.00  0.00  0.00  0.00  0.00  0.00  0.00
  409                     1.00   0.15  0.85  0.00  0.00  0.00  0.00  0.00  0.00  0.00
  410                     1.00   0.15  0.00  0.00  0.31  0.53  0.00  0.00  0.00  0.00
  411                     1.00   0.15  0.00  0.00  0.85  0.00  0.00  0.00  0.85  0.00
  412                     1.00   0.02  0.00  0.00  0.98  0.00  0.00  0.00  0.61  0.00
  413                     1.00   0.15  0.00  0.00  0.85  0.00  0.00  0.00  0.00  0.00
  414                     1.00   0.15  0.13  0.00  0.72  0.00  0.00  0.00  0.84  0.00
  415                     1.00   0.15  0.00  0.00  0.00  0.85  0.00  0.00  0.00  0.00
  417                     1.00   1.00  0.00  0.00  0.00  0.00  0.00  0.00  0.00  0.00
  420                     1.00   0.15  0.00  0.00  0.85  0.00  0.00  0.00  0.00  0.00
  421                     1.00   0.15  0.85  0.00  0.00  0.00  0.00  0.00  0.00  0.00
  429                     1.00   1.00  0.00  0.00  0.00  0.00  0.00  0.00  0.00  0.00
  430                     1.00   1.00  0.00  0.00  0.00  0.00  0.00  0.00  0.00  0.00
  431                     1.00   0.15  0.00  0.00  0.85  0.00  0.00  0.00  0.00  0.00
  432                     1.00   0.15  0.12  0.00  0.73  0.00  0.00  0.00  0.85  0.00
  433                     1.00   0.45  0.52  0.00  0.02  0.01  0.00  0.00  0.83  0.00
  434                     1.00   0.15  0.82  0.00  0.02  0.00  0.00  0.00  0.85  0.00
  435                     1.00   0.15  0.74  0.00  0.10  0.00  0.00  0.00  0.85  0.00
  436                     1.00   0.15  0.76  0.00  0.08  0.00  0.00  0.00  0.78  0.00
  437                     1.00   0.15  0.00  0.00  0.85  0.00  0.00  0.00  0.00  0.00
  438                     1.00   0.15  0.00  0.00  0.85  0.00  0.00  0.00  0.85  0.00
  439                     1.00   1.00  0.00  0.00  0.00  0.00  0.00  0.00  0.00  0.00
  440                     1.00   0.15  0.00  0.00  0.85  0.00  0.00  0.00  0.02  0.00
  441                     1.00   0.15  0.18  0.00  0.67  0.00  0.00  0.00  0.85  0.00
  
  
  *************************
  Conduit Surcharge Summary
  *************************
  
  ----------------------------------------------------------------------------
                                                           Hours        Hours 
                         --------- Hours Full --------   Above Full   Capacity
  Conduit                Both Ends  Upstream  Dnstream   Normal Flow   Limited
  ----------------------------------------------------------------------------
  305                         0.01      0.01      0.66      0.01         0.01
  306                         0.01      0.12      0.01      0.01         0.01
  307                         0.01      0.01      0.49      0.01         0.01
  310                         0.01      0.01     12.14      0.01         0.01
  311                         0.01      0.01     12.14      0.01         0.01
  313                         0.01      0.01      0.01      0.47         0.01
  318                         0.01      0.01      0.48      0.01         0.01
  319                         0.01      0.01     65.99      3.61         0.01
  327                         0.01      0.01      0.01      0.01         0.01
  328                         0.01      0.01      0.01      0.01         0.01
  332                         0.01      0.01      0.23      0.01         0.01
  343                        65.94     66.00     65.94      0.22         0.15
  345                         0.01      0.01      0.11      0.01         0.01
  353                         0.01      0.22      0.01      0.01         0.01
  363                         0.01      0.22      0.01      0.63         0.01
  365                         0.04      0.04      0.22      0.05         0.01
  366                         0.01      0.01      0.18      0.01         0.01
  367                         0.10      0.15      0.10      0.09         0.01
  368                         0.01      0.01     65.73      0.01         0.01
  373                         0.09      0.18      0.31      0.05         0.01
  374                         0.12      0.21      0.31      0.11         0.01
  386                        45.87     45.87     57.62      0.01         0.01
  388                         0.01     70.15      0.01     72.19         0.01
  392                         0.01      0.01     65.84      0.01         0.01
  396                         0.01      2.01      0.01      0.61         0.01
  403                         0.01      0.05      0.01      0.01         0.01
  410                         0.01      0.01      0.12      0.01         0.01
  412                         0.01      0.01     52.36      0.01         0.01
  413                         0.01      0.01      0.01      1.56         0.01
  431                        51.00     51.00     65.80      0.01         0.01
  434                         0.01      0.01     65.86      0.01         0.01
  436                         0.01      0.01     65.87      0.01         0.01
  438                         0.01      0.01     64.22      0.01         0.01
  441                         0.01      0.01      0.18      0.01         0.01
  

  Analysis begun on:  Fri Mar  6 14:51:01 2026
  Analysis ended on:  Fri Mar  6 14:51:03 2026
  Total elapsed time: 00:00:02