
  EPA STORM WATER MANAGEMENT MODEL - VERSION 5.2 (Build 5.2.4)
  ------------------------------------------------------------

  Metropolitan Sewer District of Greater Cincinnati - SWM Project 
  RUNOFF Input for Middle Mill Creek Sewershed MMC-003 and MMC-014 
  MSD System Wide Model - Mill Creek Middle Mill - Sewershed 03-14 
  WARNING 01: wet weather time step reduced to recording interval for Rain Gage GAGE1
  WARNING 04: minimum elevation drop used for Conduit 38102011-38102038
  WARNING 04: minimum elevation drop used for Conduit 36505023-36505011
  WARNING 04: minimum elevation drop used for Conduit 38005010-38005007B
  WARNING 04: minimum elevation drop used for Conduit 40301022-38004034
  
  *************
  Element Count
  *************
  Number of rain gages ...... 2
  Number of subcatchments ... 408
  Number of nodes ........... 609
  Number of links ........... 613
  Number of pollutants ...... 0
  Number of land uses ....... 0
  
  
  ****************
  Raingage Summary
  ****************
                                                      Data       Recording
  Name                 Data Source                    Type       Interval 
  ------------------------------------------------------------------------
  GAGE1                SERIES1                        VOLUME       5 min.
  GAGE2                SERIES1                        VOLUME       5 min.
  
  
  ********************
  Subcatchment Summary
  ********************
  Name                       Area     Width   %Imperv    %Slope Rain Gage            Outlet              
  -----------------------------------------------------------------------------------------------------------
  MMC003C0001                5.00      0.00     39.38  382.0000 GAGE1                40203030            
  MMC003C0002               45.00    984.50     35.84  308.0000 GAGE1                40202021            
  MMC003C0003                4.00  41087.88     29.01    0.0000 GAGE1                40203022            
  MMC003C0004                2.00    720.72     33.22  691.0000 GAGE1                40203008            
  MMC003C0005                0.00      0.00     77.88  223.0000 GAGE1                40203001            
  MMC003C0006                3.00    483.26     26.95  255.0000 GAGE1                40203010            
  MMC003C0007                0.00      0.00     80.00    0.0000 GAGE1                40203009            
  MMC003C0008                0.00      0.00     79.42  353.0000 GAGE1                40203003            
  MMC003C0009                0.00      0.00     72.46  276.0000 GAGE1                40203005            
  MMC003C0010                2.00    385.80     35.53  352.0000 GAGE1                40202021            
  MMC003C0011                2.00    585.48     25.32  320.0000 GAGE1                40203004            
  MMC003C0012                3.00    383.67     42.59  235.0000 GAGE1                40202008            
  MMC003C0013                5.00    396.39     39.30  474.0000 GAGE1                40202032            
  MMC003C0014                2.00    450.63     31.91  266.0000 GAGE1                40202031            
  MMC003C0015                2.00      0.00     58.96    0.0000 GAGE1                40202003            
  MMC003C0016                3.00    402.62     49.68  350.0000 GAGE1                40203020            
  MMC003C0017                3.00    261.00     49.45  390.0000 GAGE1                40203023            
  MMC003C0018                9.00   7524.57     21.23  104.0000 GAGE1                40206007            
  MMC003C0019                3.00    350.69     21.00  283.0000 GAGE1                40206002            
  MMC003C0020                2.00    220.88     21.00  195.0000 GAGE1                40206002            
  MMC003C0021                2.00    283.83     21.74  311.0000 GAGE1                40207016            
  MMC003C0022                1.00      0.00     29.17    0.0000 GAGE1                40202028            
  MMC003C0023                0.00      0.00     73.56  323.0000 GAGE1                40202027            
  MMC003C0024                1.00    595.64     48.00  307.0000 GAGE1                40202026            
  MMC003C0025                1.00   1067.78     55.56    0.0000 GAGE1                40202024            
  MMC003C0026                1.00    191.04     48.00    0.0000 GAGE1                40202025            
  MMC003C0027                1.00    302.91     55.47  277.0000 GAGE1                40202016            
  MMC003C0028                6.00    331.16     21.00  233.0000 GAGE1                40210003            
  MMC003C0029                7.00    579.98     21.23  240.0000 GAGE1                40207008            
  MMC003C0030                5.00    525.80     21.00  286.0000 GAGE1                40207011            
  MMC003C0031                0.00      0.00     48.04  328.0000 GAGE1                40207007            
  MMC003C0032                2.00    738.14     21.00  432.0000 GAGE1                40207007            
  MMC003C0033                2.00    740.52     22.47  267.0000 GAGE1                40207006            
  MMC003C0034                2.00    272.07     40.93  315.0000 GAGE1                40202012            
  MMC003C0035                0.00      0.00     72.10  229.0000 GAGE1                40202011            
  MMC003C0036                1.00    298.20     69.32  212.0000 GAGE1                40202010            
  MMC003C0037                1.00    313.40     60.61  269.0000 GAGE1                40202030            
  MMC003C0038                4.00    804.24     21.98  180.0000 GAGE1                40210002            
  MMC003C0039                4.00    619.10     79.92  237.0000 GAGE1                40207003            
  MMC003C0040                6.00   1485.89     79.18  113.0000 GAGE1                40207001            
  MMC003C0041                5.00    700.61     77.29  132.0000 GAGE1                40202005            
  MMC003C0042                9.00   1536.35     47.72  273.0000 GAGE1                40201008            
  MMC003C0043               13.00   2354.45     77.45    0.0000 GAGE1                40201014            
  MMC003C0044               12.00    898.65     79.18  145.0000 GAGE1                40201011            
  MMC003C0045                4.00   1007.39     63.44  125.0000 GAGE1                40208005            
  MMC003C0046               18.00   2937.93     57.76   71.0000 GAGE1                40209001            
  MMC003C0047                3.00    760.86     32.27   49.0000 GAGE1                40209003            
  MMC003C0048                9.00   2690.18     75.00   86.0000 GAGE1                40201003            
  MMC003C0049                3.00    511.82     55.41   40.0000 GAGE1                40208002            
  MMC003C0050                2.00    351.81     79.39    0.0000 GAGE1                40208004            
  MMC003C0051                2.00    654.75     65.24   41.0000 GAGE1                38105015            
  MMC003C0052                1.00  19945.05     70.80   27.0000 GAGE1                40201004            
  MMC003C0053                1.00    159.62     75.46   39.0000 GAGE1                40208001            
  MMC003C0054                3.00    413.93     75.00  112.0000 GAGE1                40201001            
  MMC003C0055                2.00      0.00     70.50    0.0000 GAGE1                38104006            
  MMC003C0056                3.00    257.42     54.42    0.0000 GAGE1                38105026            
  MMC003C0057                3.00   1074.90     65.19  454.0000 GAGE1                38104006            
  MMC003C0058                7.00    531.96     76.08    0.0000 GAGE1                40201017            
  MMC003C0059                8.00    450.03     78.65  297.0000 GAGE1                40201016            
  MMC003C0060                7.00   2656.14     77.99    0.0000 GAGE1                40201017            
  MMC003C0061                6.00    416.03     70.58  313.0000 GAGE1                38104003            
  MMC003C0062                7.00   1258.55     80.00  226.0000 GAGE1                38013019            
  MMC003C0063                5.00    798.15     79.98   93.0000 GAGE1                38013018            
  MMC003C0064                3.00    403.25     57.11    0.0000 GAGE1                38013017            
  MMC003C0065                3.00    732.77     51.68  247.0000 GAGE1                38013014            
  MMC003C0066                4.00  43961.52     74.48    0.0000 GAGE1                38013003            
  MMC003C0067                0.00      0.00     50.40  363.0000 GAGE1                38013008            
  MMC003C0068                0.00      0.00     57.94   82.0000 GAGE1                38013016            
  MMC003C0069                1.00      0.00     53.10    0.0000 GAGE1                38013014            
  MMC003C0070                0.00      0.00     48.00  143.0000 GAGE1                38013012            
  MMC003C0071                0.00      0.00     48.22   95.0000 GAGE1                38013014            
  MMC003C0072                0.00      0.00     59.08    0.0000 GAGE1                38013011            
  MMC003C0073                1.00      0.00     78.73    0.0000 GAGE1                38013013            
  MMC003C0074                4.00    995.45     80.00    0.0000 GAGE1                38013013            
  MMC003C0075                2.00    571.16     83.83   38.0000 GAGE1                38013009            
  MMC003C0076                2.00      0.00     80.09    0.0000 GAGE1                38013013            
  MMC003C0077                4.00   2756.43     84.77    0.0000 GAGE1                38014004            
  MMC003C0078                5.00   1294.07     84.77   21.0000 GAGE1                38014005            
  MMC003C0079                0.00      0.00     49.18    0.0000 GAGE1                38013012            
  MMC003C0080                0.00      0.00     64.00    0.0000 GAGE1                38013010            
  MMC003C0081                2.00    312.99     84.76   69.0000 GAGE1                38013013            
  MMC003C0082                5.00    751.74     84.81   83.0000 GAGE1                38104016            
  MMC003C0083                2.00    748.62     56.37  159.0000 GAGE1                38104006            
  MMC003C0084                8.00    966.92     53.79   93.0000 GAGE1                38104004            
  MMC003C0085                3.00  42675.20     27.29    0.0000 GAGE1                38112029            
  MMC003C0086                4.00   4761.36     38.86   61.0000 GAGE1                38112030            
  MMC003C0087                4.00    603.75     48.82   91.0000 GAGE1                38113026            
  MMC003C0088                2.00  30759.09     55.16   89.0000 GAGE1                38113029            
  MMC003C0089                9.00 144026.45     77.22    0.0000 GAGE1                38113030            
  MMC003C0090                6.00    360.26     21.03   50.0000 GAGE1                38113013            
  MMC003C0091               10.00    932.99     31.69   38.0000 GAGE1                38113015            
  MMC003C0092               12.00    415.80     22.16   33.0000 GAGE1                38113011            
  MMC003C0093                3.00    509.97     23.18    0.0000 GAGE1                38113034            
  MMC003C0094                4.00    295.31     21.91   28.0000 GAGE1                38112013            
  MMC003C0095                8.00    547.95     21.00   71.0000 GAGE1                38111018            
  MMC003C0096                5.00    483.30     21.00  112.0000 GAGE1                38111017            
  MMC003C0097                1.00    133.44     85.00   75.0000 GAGE1                38113022            
  MMC003C0098                2.00   1902.08     49.32  108.0000 GAGE1                38113009            
  MMC003C0099                2.00      0.00     21.03    0.0000 GAGE1                38113011            
  MMC003C0100                0.00      0.00     72.00  178.0000 GAGE1                38113008            
  MMC003C0101                1.00  32015.28     84.25    0.0000 GAGE1                38113005            
  MMC003C0102                2.00    638.16     84.43  223.0000 GAGE1                38112016            
  MMC003C0103                0.00      0.00     56.05    0.0000 GAGE1                38112026            
  MMC003C0104                2.00   1063.67     45.15   12.0000 GAGE1                38112013            
  MMC003C0105                1.00    577.49     84.72    0.0000 GAGE1                38112016            
  MMC003C0106                5.00   3069.75     23.59  186.0000 GAGE1                38112002            
  MMC003C0107                1.00    111.81     21.00  200.0000 GAGE1                38112009            
  MMC003C0108                2.00    166.01     26.40 1086.0000 GAGE1                38112008            
  MMC003C0109                2.00    430.80     52.46  106.0000 GAGE1                38112022            
  MMC003C0110                3.00    292.74     35.31    0.0000 GAGE1                38112023            
  MMC003C0111                4.00    348.21     34.15    0.0000 GAGE1                38112019            
  MMC003C0112                5.00    403.22     34.57    0.0000 GAGE1                38105023            
  MMC003C0113                5.00  27509.73     39.44    0.0000 GAGE1                38105019            
  MMC003C0114                2.00    425.07     53.52   73.0000 GAGE1                38112018            
  MMC003C0115                2.00    446.96     52.86  244.0000 GAGE1                38105024            
  MMC003C0116                2.00    301.16     31.20   84.0000 GAGE1                38105006            
  MMC003C0117                2.00    315.51     29.57  249.0000 GAGE1                38105004            
  MMC003C0118                2.00    361.71     55.08  181.0000 GAGE1                38105020            
  MMC003C0119                7.00      0.00     52.22    0.0000 GAGE1                38105007            
  MMC003C0120                1.00     96.72     75.91  250.0000 GAGE1                38105007            
  MMC003C0121                1.00     44.91     78.48    0.0000 GAGE1                38105002            
  MMC003C0122                0.00      0.00     48.00  658.0000 GAGE1                38105013            
  MMC003C0123                8.00   1109.70     57.19   86.0000 GAGE1                38104001            
  MMC003C0124               14.00    653.33     22.02   66.0000 GAGE1                38106023            
  MMC003C0125                3.00    228.92     22.96  310.0000 GAGE1                38106011            
  MMC003C0126                0.00      0.00     85.00    0.0000 GAGE1                38105001            
  MMC003C0127                5.00    667.59     84.90  176.0000 GAGE1                38104001            
  MMC003C0128                3.00    433.35     63.68   24.0000 GAGE1                38106012            
  MMC003C0129               22.00   2247.66     80.18   79.0000 GAGE1                38103019            
  MMC003C0130                4.00    964.77     84.61   24.0000 GAGE1                38103018            
  MMC003C0131                2.00    131.28     80.88   98.0000 GAGE1                38103017            
  MMC003C0132                1.00    143.12     61.55  338.0000 GAGE1                38103017            
  MMC003C0133               14.00    720.99     46.73  166.0000 GAGE1                38103014            
  MMC003C0134                8.00   1067.30     71.18    0.0000 GAGE1                38102014            
  MMC003C0135                2.00    377.57     72.91   19.0000 GAGE1                38103014            
  MMC003C0136                1.00    637.50     85.00    0.0000 GAGE1                38103012            
  MMC003C0137               20.00   2174.10     81.91   23.0000 GAGE1                38103003            
  MMC003C0138                0.00      0.00    100.00  114.0000 GAGE1                38102001            
  MMC003C0139                1.00    117.84     78.39  138.0000 GAGE1                38102003            
  MMC003C0140                3.00    380.84     79.49  167.0000 GAGE1                38102005            
  MMC003C0141                0.00      0.00     72.07  205.0000 GAGE1                38102006            
  MMC003C0142                2.00    480.12     71.85   32.0000 GAGE1                38103001            
  MMC003C0143                8.00    383.91     76.33    0.0000 GAGE1                38102014            
  MMC003C0144                3.00    419.48     57.05  338.0000 GAGE1                38102009            
  MMC003C0145                4.00   1519.19     80.00    0.0000 GAGE1                38102045            
  MMC003C0146                1.00    280.04     80.00   18.0000 GAGE1                38015027            
  MMC003C0147                4.00  10166.81     62.31   88.0000 GAGE1                38015011            
  MMC003C0148                2.00    494.66     63.73   86.0000 GAGE1                38015014            
  MMC003C0149                5.00    318.38     75.90   79.0000 GAGE1                38102037            
  MMC003C0150                5.00   1018.43     70.67   79.0000 GAGE1                38102038            
  MMC003C0151                9.00   1275.92     56.52   54.0000 GAGE1                38015003            
  MMC003C0152               10.00   2259.17     60.30    0.0000 GAGE1                38015004            
  MMC003C0153                4.00    563.64     40.46    0.0000 GAGE1                38015004            
  MMC003C0154                8.00    805.85     50.73   25.0000 GAGE1                38015002            
  MMC003C0155                9.00   2361.77     23.78   83.0000 GAGE1                38016013            
  MMC003C0156               43.00   1595.21     42.72  353.0000 GAGE1                36512028            
  MMC003C0157               22.00    762.93    100.00  184.0000 GAGE1                38009011            
  MMC003C0158                7.00    637.13      0.50   50.0000 GAGE1                38009011            
  MMC003C0159               52.00  14041.50      1.99    0.0000 GAGE1                38008003            
  MMC003C0160               19.00   2009.94      0.50   24.0000 GAGE1                38009013            
  MMC003C0161                4.00   1071.65     22.03   41.0000 GAGE1                36512021            
  MMC003C0162                1.00    155.61     21.00  546.0000 GAGE1                36512028            
  MMC003C0163                4.00    373.47     23.92  631.0000 GAGE1                36512036            
  MMC003C0164                4.00    302.88     30.69    0.0000 GAGE1                36512010            
  MMC003C0165                5.00   1044.30     40.72    0.0000 GAGE1                36512004            
  MMC003C0166                2.00    130.88     74.94    0.0000 GAGE1                36512004            
  MMC003C0167                3.00   1097.70     57.73   86.0000 GAGE1                36505008            
  MMC003C0168                5.00    573.77     64.31    0.0000 GAGE1                36505008            
  MMC003C0169                4.00    497.60     33.06  245.0000 GAGE1                36505017            
  MMC003C0170                1.00    337.40     27.31   65.0000 GAGE1                36505018            
  MMC003C0171                9.00   4282.41      0.50   29.0000 GAGE1                36505023            
  MMC003C0172                3.00      0.00      0.64    0.0000 GAGE1                36505014            
  MMC003C0173                1.00      0.00     21.17    0.0000 GAGE1                36505010            
  MMC003C0174                2.00    183.47      0.50  232.0000 GAGE1                36505011            
  MMC003C0175                9.00    527.33     24.27  389.0000 GAGE1                38008002            
  MMC003C0176                6.00    302.09     26.69   68.0000 GAGE1                36504027            
  MMC003C0177                3.00   1088.21     31.89   77.0000 GAGE1                36504021            
  MMC003C0178                3.00   1079.07     45.58    0.0000 GAGE1                36504006            
  MMC003C0179                1.00     59.97    100.00   77.0000 GAGE1                36504006            
  MMC003C0180                3.00   1152.68     42.35   95.0000 GAGE1                36504006            
  MMC003C0181                5.00    293.43     40.55   83.0000 GAGE1                36613023            
  MMC003C0182                3.00    552.62     61.30  118.0000 GAGE1                36613018            
  MMC003C0183                1.00    165.24    100.00  140.0000 GAGE1                36613014            
  MMC003C0184                2.00   5531.36     53.22    0.0000 GAGE1                36613017            
  MMC003C0185               10.00    389.00     42.15   75.0000 GAGE1                36613006            
  MMC003C0186               14.00    719.22     33.06   66.0000 GAGE1                36612022            
  MMC003C0187                3.00    187.97     22.53   85.0000 GAGE1                38001012            
  MMC003C0188                3.00   1833.74     31.77   46.0000 GAGE1                37915018            
  MMC003C0189                1.00    336.80     24.87   95.0000 GAGE1                37916028            
  MMC003C0190                2.00    386.36     30.42   95.0000 GAGE1                38001012            
  MMC003C0191                5.00   1091.57     37.95   42.0000 GAGE1                37916020            
  MMC003C0192                3.00    912.72     26.32   92.0000 GAGE1                37915008            
  MMC003C0193                3.00    460.64     53.35   92.0000 GAGE1                37915010            
  MMC003C0194                2.00    858.38     66.45   70.0000 GAGE1                37915012            
  MMC003C0195                1.00   2526.47     83.71    0.0000 GAGE1                37915016            
  MMC003C0196                1.00    164.97     78.41   92.0000 GAGE1                37916018            
  MMC003C0197                2.00    243.41     30.46   51.0000 GAGE1                37916015            
  MMC003C0198                5.00    332.37     61.78   74.0000 GAGE1                37916010            
  MMC003C0199                1.00   2957.52     61.06    0.0000 GAGE1                37916008            
  MMC003C0200                2.00    409.43     31.63  185.0000 GAGE1                37916012            
  MMC003C0201                2.00    228.17     41.36   74.0000 GAGE1                38001003            
  MMC003C0202                0.00      0.00     59.46   41.0000 GAGE1                38001007            
  MMC003C0203                2.00    542.60     33.84   87.0000 GAGE1                38001007            
  MMC003C0204                2.00   7054.64     24.09    0.0000 GAGE1                38001009            
  MMC003C0205                2.00    267.30     32.45  149.0000 GAGE1                36504002            
  MMC003C0206                5.00    855.50     25.05  391.0000 GAGE1                36504003            
  MMC003C0207                1.00    182.42     26.29  146.0000 GAGE1                36504003            
  MMC003C0208                2.00    307.52     37.90  260.0000 GAGE1                36504004            
  MMC003C0209                3.00      0.00     45.14    0.0000 GAGE1                36504004            
  MMC003C0210                4.00    819.57     41.46  239.0000 GAGE1                36613020            
  MMC003C0211                4.00    667.73     40.74  164.0000 GAGE1                36613011            
  MMC003C0212                9.00  16385.39     30.21   66.0000 GAGE1                36613003            
  MMC003C0213                1.00    111.11     35.02    0.0000 GAGE1                36505021            
  MMC003C0214                3.00    275.82     22.16  121.0000 GAGE1                36504039            
  MMC003C0215                1.00    195.87     19.30  415.0000 GAGE1                36505006            
  MMC003C0216                1.00    159.32      9.05  412.0000 GAGE1                36505013            
  MMC003C0217                2.00   1567.95     55.60  455.0000 GAGE1                36505021            
  MMC003C0218               15.00    761.55     26.50  545.0000 GAGE1                36506003            
  MMC003C0219                1.00    282.29     56.53    0.0000 GAGE1                36506003            
  MMC003C0220                2.00    706.10     27.95  310.0000 GAGE1                40203030            
  MMC003C0221                1.00    153.84     48.60  498.0000 GAGE1                40203002            
  MMC003C0222                3.00      0.00     23.45    0.0000 GAGE1                40202022            
  MMC003C0223               11.00    575.61     36.79  332.0000 GAGE1                40202008            
  MMC003C0224                0.00      0.00     74.81  151.0000 GAGE1                40202003            
  MMC003C0225                5.00   3812.66     34.83   41.0000 GAGE1                37916023            
  MMC003C0226                3.00      0.00     35.61    0.0000 GAGE1                37909026            
  MMC014C0001                0.42      0.00    100.00  151.0000 GAGE1                40309015            
  MMC014C0002                5.00    784.68    100.00  771.0000 GAGE1                40309008            
  MMC014C0003               90.00   1302.18     28.33  359.0000 GAGE1                42801029            
  MMC014C0004                4.00      0.00     29.81    0.0000 GAGE1                42816002            
  MMC014C0005                2.00   1299.78     32.20    0.0000 GAGE1                42809009            
  MMC014C0006                5.00    519.60     53.59    0.0000 GAGE1                42809010            
  MMC014C0007                2.00    190.68     46.53  244.0000 GAGE1                42809008            
  MMC014C0008                1.00    367.56     37.75  211.0000 GAGE1                42809006            
  MMC014C0009                0.44      0.00     45.16  880.0000 GAGE1                42809001            
  MMC014C0010                7.00    622.74     55.41  495.0000 GAGE1                42809003            
  MMC014C0011                7.00    521.37     35.61  452.0000 GAGE1                40312006            
  MMC014C0012                0.21      0.00     28.15  143.0000 GAGE1                40312006            
  MMC014C0013               37.00   2258.79      1.13  218.0000 GAGE1                40305009            
  MMC014C0014                4.00    777.21     19.65   83.0000 GAGE1                40305011            
  MMC014C0015                1.00    412.98     40.12 1110.0000 GAGE1                42801026            
  MMC014C0016                2.00    312.30     38.65  527.0000 GAGE1                42801028            
  MMC014C0017                1.00    231.99     56.52  384.0000 GAGE1                40304025            
  MMC014C0018                3.00    407.10     47.17    0.0000 GAGE1                40304024            
  MMC014C0019                3.00    419.52     33.77  192.0000 GAGE1                40304032            
  MMC014C0020                1.00    316.62     29.40    0.0000 GAGE1                40305007            
  MMC014C0021                1.00   5950.98     29.40    0.0000 GAGE1                40304020            
  MMC014C0022                4.00    644.88     44.42  790.0000 GAGE1                40304019            
  MMC014C0023                1.00    209.34     31.93    0.0000 GAGE1                40304019            
  MMC014C0024                4.00      0.00     30.19    0.0000 GAGE1                40304003            
  MMC014C0025                6.00   3042.90     33.50  998.0000 GAGE1                40413021            
  MMC014C0026                4.00   1698.03     54.56    0.0000 GAGE1                40413025            
  MMC014C0027                3.00    404.37     68.22  452.0000 GAGE1                40413027            
  MMC014C0028                5.00   3843.72     30.74   92.0000 GAGE1                40303012            
  MMC014C0029                4.00  14854.62     29.40   52.0000 GAGE1                40303017            
  MMC014C0030               20.00   2268.18      0.70  426.0000 GAGE1                40306017            
  MMC014C0031               51.00   1533.00     31.79  671.0000 GAGE1                40315014            
  MMC014C0032               11.00  54299.46      4.20    0.0000 GAGE1                40311013            
  MMC014C0033               26.00   1721.73      4.86  151.0000 GAGE1                40306007            
  MMC014C0034                1.00    490.29     42.42  285.0000 GAGE1                40413024            
  MMC014C0035                4.00    301.26     50.92  190.0000 GAGE1                40414012            
  MMC014C0036                4.00    222.18     88.93  634.0000 GAGE1                40414015            
  MMC014C0037                3.00    812.52     65.90  408.0000 GAGE1                40303004            
  MMC014C0038                2.00    138.00     15.96  273.0000 GAGE1                40306009            
  MMC014C0039                2.00    341.40     29.40   43.0000 GAGE1                40303014            
  MMC014C0040                1.00    298.44     49.51  111.0000 GAGE1                40305017            
  MMC014C0041                6.00   1454.16     32.39  196.0000 GAGE1                40306014            
  MMC014C0042                2.00    593.34    100.00  196.0000 GAGE1                40306031            
  MMC014C0043                6.00    623.70    100.00   75.0000 GAGE1                40303014            
  MMC014C0044                3.00    797.64     29.40   69.0000 GAGE1                40303010            
  MMC014C0045                4.00    587.70     94.39  169.0000 GAGE1                40303001            
  MMC014C0046                4.00    751.05     90.03  527.0000 GAGE1                40414016            
  MMC014C0047                3.00    765.12     99.68    0.0000 GAGE1                40414015            
  MMC014C0048                4.00    561.27    100.00  693.0000 GAGE1                40411035            
  MMC014C0049                2.00    464.01     93.18    0.0000 GAGE1                40411038            
  MMC014C0050               23.00    574.02     41.34   79.0000 GAGE1                40411040            
  MMC014C0051               25.00    985.35     70.27  156.0000 GAGE1                40415013            
  MMC014C0052                3.00    315.27     30.79  625.0000 GAGE1                40415014            
  MMC014C0053                5.00    345.66     29.41  559.0000 GAGE1                40416006            
  MMC014C0054               36.00   1669.02     67.86  507.0000 GAGE1                40409023            
  MMC014C0055               18.00    705.33     59.89  221.0000 GAGE1                40409003            
  MMC014C0056               18.00    792.81     44.62  113.0000 GAGE1                40409004            
  MMC014C0057                4.00    382.32     31.08  259.0000 GAGE1                40416003            
  MMC014C0058                8.00    410.46     42.23  354.0000 GAGE1                40416012            
  MMC014C0059                7.00    569.73     40.42  710.0000 GAGE1                40416029            
  MMC014C0060                6.00    581.07     59.04  471.0000 GAGE1                40414022            
  MMC014C0061                9.00    643.71     50.12  241.0000 GAGE1                40415018            
  MMC014C0062                5.00    543.54     76.71  198.0000 GAGE1                40415017            
  MMC014C0063                3.00    326.43    100.00  172.0000 GAGE1                40415016            
  MMC014C0064                3.00   1784.31     29.95 1802.0000 GAGE1                40416027            
  MMC014C0065                3.00    543.24     99.99  159.0000 GAGE1                40416028            
  MMC014C0066                5.00    378.06     41.89  155.0000 GAGE1                40409018            
  MMC014C0067                5.00   2373.27     48.54  153.0000 GAGE1                40409019            
  MMC014C0068                7.00    591.21     38.64  134.0000 GAGE1                37913027            
  MMC014C0069                4.00    877.26     51.37   88.0000 GAGE1                37913029            
  MMC014C0070                2.00    216.06     59.92  127.0000 GAGE1                40416008            
  MMC014C0071                3.00    381.45     71.43  354.0000 GAGE1                37913033            
  MMC014C0072                0.16      0.00    100.00    0.0000 GAGE1                37913063            
  MMC014C0073                2.00    218.97     55.77  217.0000 GAGE1                40416010            
  MMC014C0074                3.00    326.07     64.63  670.0000 GAGE1                40416021            
  MMC014C0075                0.00      0.00     29.40    0.0000 GAGE1                40416023            
  MMC014C0076               10.00   1578.06     95.07  146.0000 GAGE1                40416025            
  MMC014C0077               18.00    549.00    100.00  433.0000 GAGE1                40301003            
  MMC014C0078                6.00    335.91     42.80    0.0000 GAGE1                37913029            
  MMC014C0079                2.00   5428.68     37.70    0.0000 GAGE1                38004025            
  MMC014C0080                2.00      0.00     49.71    0.0000 GAGE1                37913012            
  MMC014C0081                5.00    307.38     39.03  116.0000 GAGE1                37914023            
  MMC014C0082               18.00   1895.37     34.19   94.0000 GAGE1                37914030            
  MMC014C0083                0.20      0.00    100.00    0.0000 GAGE1                37915025            
  MMC014C0084                5.00    768.99     68.23   92.0000 GAGE1                37915032            
  MMC014C0085                2.00    332.25     35.25  220.0000 GAGE1                37914040            
  MMC014C0086                4.00    861.81     55.06   85.0000 GAGE1                37915031            
  MMC014C0087                3.00    617.37     43.41  233.0000 GAGE1                38003018            
  MMC014C0088                2.00    329.31     53.67  269.0000 GAGE1                38003026            
  MMC014C0089                5.00    484.23     34.16  231.0000 GAGE1                38003007            
  MMC014C0090                2.00    236.07     48.85    0.0000 GAGE1                38002004            
  MMC014C0091                1.00      0.00     65.53    0.0000 GAGE1                38003008            
  MMC014C0092                2.00    464.91     43.99  255.0000 GAGE1                38003010            
  MMC014C0093                2.00    195.90     29.40  170.0000 GAGE1                38003022            
  MMC014C0094                3.00    542.88     33.18  225.0000 GAGE1                38003021            
  MMC014C0095                2.00    285.18     42.31  191.0000 GAGE1                38003024            
  MMC014C0096                3.00    565.77     31.22  226.0000 GAGE1                38003023            
  MMC014C0097                8.00    374.49     29.50  303.0000 GAGE1                38006019            
  MMC014C0098                2.00    188.04     96.59  686.0000 GAGE1                38004024            
  MMC014C0099                3.00    545.76     36.36  321.0000 GAGE1                38004008            
  MMC014C0100                4.00  11425.44     82.13    0.0000 GAGE1                38004014            
  MMC014C0101                0.42      0.00    100.00  342.0000 GAGE1                37913044            
  MMC014C0102                0.27      0.00     79.84    0.0000 GAGE1                37913044            
  MMC014C0103                3.00    253.86     57.92  239.0000 GAGE1                38004030            
  MMC014C0104                7.00    525.72     45.13  493.0000 GAGE1                40315009            
  MMC014C0105                4.00    346.65     48.49  191.0000 GAGE1                40310015            
  MMC014C0106                1.00    319.23     47.37  165.0000 GAGE1                40310028            
  MMC014C0107                1.00    276.30     47.01  176.0000 GAGE1                40310026            
  MMC014C0108                7.00    347.58     52.74  421.0000 GAGE1                40310033            
  MMC014C0109                8.00    656.25     33.65  813.0000 GAGE1                40310019            
  MMC014C0110               13.00    935.79    100.00  514.0000 GAGE1                40309010            
  MMC014C0111                3.00  66533.16     98.00  118.0000 GAGE1                40310007            
  MMC014C0112                6.00    620.49     42.19   79.0000 GAGE1                40310015            
  MMC014C0113                0.23      0.00    100.00  712.0000 GAGE1                40310011            
  MMC014C0114                0.34      0.00     65.55  543.0000 GAGE1                40310009            
  MMC014C0115                5.00    565.38    100.00  183.0000 GAGE1                40307013            
  MMC014C0116                3.00    348.96     41.17   66.0000 GAGE1                40307014            
  MMC014C0117                7.00   1069.14     69.82  190.0000 GAGE1                40307011            
  MMC014C0118                2.00  64924.50      9.80    0.0000 GAGE1                40307009            
  MMC014C0119                2.00  20334.57     78.40    0.0000 GAGE1                40307005            
  MMC014C0120               22.00  13919.28    100.00 8575.0000 GAGE1                40309002            
  MMC014C0121                5.00    655.74     62.80 1304.0000 GAGE1                38004040            
  MMC014C0122                5.00    586.08    100.00  256.0000 GAGE1                38004027            
  MMC014C0123                3.00    271.89     42.59   51.0000 GAGE1                40310003            
  MMC014C0124                4.00    272.97     53.02  109.0000 GAGE1                40309002            
  MMC014C0125                3.00    558.12     60.66  280.0000 GAGE1                40309018            
  MMC014C0126                2.00    434.79     55.19  241.0000 GAGE1                40310001            
  MMC014C0127                2.00    341.04     43.65  207.0000 GAGE1                40309004            
  MMC014C0128                5.00    673.32     38.65  235.0000 GAGE1                40309003            
  MMC014C0129               10.00    829.41    100.00    0.0000 GAGE1                40308013            
  MMC014C0130                6.00    463.11    100.00 1089.0000 GAGE1                40301010            
  MMC014C0131                9.00   2182.65     98.04  304.0000 GAGE1                40301031            
  MMC014C0132                1.00    221.94     89.57  261.0000 GAGE1                38004028            
  MMC014C0133               18.00    889.44    100.00  185.0000 GAGE1                38004034            
  MMC014C0134                4.00   8388.24     60.10  112.0000 GAGE1                38003014            
  MMC014C0135                2.00    298.74     65.11  108.0000 GAGE1                38006002            
  MMC014C0136                7.00    807.99     48.54  642.0000 GAGE1                38006014            
  MMC014C0137                3.00    294.81     58.35  464.0000 GAGE1                38006004            
  MMC014C0138                9.00    892.17     46.58    0.0000 GAGE1                38006016            
  MMC014C0139                6.00    453.69     39.09    0.0000 GAGE1                38015023            
  MMC014C0140                3.00    694.23    100.00   95.0000 GAGE1                38010003            
  MMC014C0141                1.00   6925.20    100.00    0.0000 GAGE1                38011004            
  MMC014C0142                5.00      0.00      0.70    0.0000 GAGE1                38010003            
  MMC014C0143                6.00    702.75    100.00  166.0000 GAGE1                38011025            
  MMC014C0144                3.00    321.21     94.03  248.0000 GAGE1                38012006            
  MMC014C0145               14.00   1527.78     79.19  138.0000 GAGE1                38012003            
  MMC014C0146                2.00  10221.93    100.00    0.0000 GAGE1                38011024            
  MMC014C0147                3.00    413.28    100.00   90.0000 GAGE1                38011007            
  MMC014C0148                6.00    653.43     87.37  581.0000 GAGE1                38011018            
  MMC014C0149                8.00    405.69     29.40  183.0000 GAGE1                38004005            
  MMC014C0150                1.00    278.43     44.38  848.0000 GAGE1                38004015            
  MMC014C0151                2.00    589.86     75.37  742.0000 GAGE1                38004018            
  MMC014C0152                2.00    868.35     32.35  455.0000 GAGE1                38006020            
  MMC014C0153                1.00    325.14     29.65  133.0000 GAGE1                38006022            
  MMC014C0154                1.00    171.72    100.00  173.0000 GAGE1                38005004            
  MMC014C0155                3.00    644.64     90.75  251.0000 GAGE1                38004019            
  MMC014C0156                1.00    217.53    100.00  536.0000 GAGE1                40308011            
  MMC014C0157                4.00  24879.84     83.12    0.0000 GAGE1                38005016            
  MMC014C0158                4.00   3962.13    100.00  443.0000 GAGE1                38005018            
  MMC014C0159                1.00    197.37    100.00 1664.0000 GAGE1                38005018            
  MMC014C0160                8.00   1112.25     95.09  373.0000 GAGE1                40309008            
  MMC014C0161                9.00   1161.03    100.00  138.0000 GAGE1                40309006            
  MMC014C0162                1.00    354.96    100.00  260.0000 GAGE1                40309008            
  MMC014C0163                1.00      0.00    100.00    0.0000 GAGE1                40309008            
  MMC014C0164                4.00    379.80    100.00  250.0000 GAGE1                38005013            
  MMC014C0165                4.00    652.11     93.37  612.0000 GAGE1                38005013            
  MMC014C0166                4.00    951.81     99.96  602.0000 GAGE1                38005006            
  MMC014C0167                1.00   8369.85     55.33    0.0000 GAGE1                38005024            
  MMC014C0168                1.00    136.80     29.40  306.0000 GAGE1                38006023            
  MMC014C0169                1.00    645.00     99.76 1193.0000 GAGE1                38005011            
  MMC014C0170                6.00    544.74     69.61   88.0000 GAGE1                38006027            
  MMC014C0171                1.00    346.17     67.20    0.0000 GAGE1                38005009            
  MMC014C0172                2.00    696.63     69.25  631.0000 GAGE1                38011022            
  MMC014C0173                1.00    334.68     81.81  450.0000 GAGE1                38006024            
  MMC014C0174                2.00    437.37     95.76  460.0000 GAGE1                38011007            
  MMC014C0175                6.00   1447.38     82.23  234.0000 GAGE1                38006038            
  MMC014C0176               25.00   1046.79     45.47  111.0000 GAGE1                40307018            
  MMC014C0177                0.49      0.00     52.40  111.0000 GAGE1                40413035            
  MMC014C0178                1.00   2614.53     46.43   70.0000 GAGE1                40413021            
  MMC014C0179                0.24      0.00     29.40  241.0000 GAGE1                40414011            
  MMC014C0180                2.00  14791.17     62.29    0.0000 GAGE1                40414013            
  MMC014C0181                0.04      0.00     29.40    0.0000 GAGE1                40307004            
  MMC014C0182                0.05      0.00     29.40    0.0000 GAGE1                40307003            
  
  
  ************
  Node Summary
  ************
                                           Invert      Max.    Ponded    External
  Name                 Type                 Elev.     Depth      Area    Inflow  
  -------------------------------------------------------------------------------
  36504003             JUNCTION            558.40     11.00       0.0    Yes
  36504004             JUNCTION            560.03     11.00       0.0    Yes
  36504005             JUNCTION            566.66     12.00       0.0
  36504006             JUNCTION            572.23     13.00       0.0    Yes
  36504009             JUNCTION            578.55     12.00       0.0
  36504010             JUNCTION            573.87     14.00       0.0
  36504011             JUNCTION            577.19     10.00       0.0
  36504019             JUNCTION            571.63     19.00       0.0
  36504020             JUNCTION            573.63     16.00       0.0
  36504021             JUNCTION            575.44     12.00       0.0    Yes
  36504027             JUNCTION            569.70     16.00       0.0    Yes
  36504028             JUNCTION            568.99     15.00       0.0
  36504039             JUNCTION            565.58     12.00       0.0    Yes
  36504040             JUNCTION            560.93     12.00       0.0
  36505006             JUNCTION            551.13     12.00       0.0    Yes
  36505008             JUNCTION            520.93     11.07       0.0    Yes
  36505009             JUNCTION            542.62     12.00       0.0
  36505010             JUNCTION            527.70     15.00       0.0    Yes
  36505011             JUNCTION            521.15     24.00       0.0    Yes
  36505012             JUNCTION            531.54     21.00       0.0
  36505013             JUNCTION            533.57     13.00       0.0    Yes
  36505014             JUNCTION            525.34      6.00       0.0    Yes
  36505017             JUNCTION            532.05      9.00       0.0    Yes
  36505018             JUNCTION            530.71     12.00       0.0    Yes
  36505021             JUNCTION            519.23     12.77       0.0    Yes
  36505023             JUNCTION            521.15     12.85       0.0    Yes
  36512004             JUNCTION            523.53     20.00       0.0    Yes
  36512010             JUNCTION            533.92     11.00       0.0    Yes
  36512018             JUNCTION            536.96      6.00       0.0
  36512021             JUNCTION            537.38      8.00       0.0    Yes
  36512028             JUNCTION            538.43      6.00       0.0    Yes
  36512036             JUNCTION            536.41      9.59       0.0    Yes
  36612022             JUNCTION            583.24      9.00       0.0    Yes
  36613002             JUNCTION            582.41     11.00       0.0
  36613003             JUNCTION            570.71     15.00       0.0    Yes
  36613005             JUNCTION            581.13     13.00       0.0
  36613006             JUNCTION            582.41     12.00       0.0    Yes
  36613011             JUNCTION            568.64     12.00       0.0    Yes
  36613013             JUNCTION            580.13     14.00       0.0
  36613014             JUNCTION            578.16     14.00       0.0    Yes
  36613015             JUNCTION            581.42     15.00       0.0
  36613016             JUNCTION            584.77     13.00       0.0
  36613017             JUNCTION            587.37     11.00       0.0    Yes
  36613018             JUNCTION            576.42     12.00       0.0    Yes
  36613020             JUNCTION            563.95     12.00       0.0    Yes
  36613022             JUNCTION            574.94     11.00       0.0
  36613023             JUNCTION            573.42     12.00       0.0    Yes
  37913012             JUNCTION            602.97     10.00       0.0    Yes
  37913027             JUNCTION            622.16      7.00       0.0    Yes
  37913028             JUNCTION            620.19      5.00       0.0
  37913029             JUNCTION            612.89     10.00       0.0    Yes
  37913033             JUNCTION            613.32     11.00       0.0    Yes
  37913037             JUNCTION            603.12     19.00       0.0
  37913038             JUNCTION            602.89     19.00       0.0
  37913039             JUNCTION            602.51     19.00       0.0
  37913040             JUNCTION            612.84     12.00       0.0
  37913043             JUNCTION            613.20     10.00       0.0
  37913044             JUNCTION            601.92     20.00       0.0    Yes
  37913047             JUNCTION            599.49     12.00       0.0
  37913048             JUNCTION            595.32     18.00       0.0
  37913063             JUNCTION            603.53     18.47       0.0    Yes
  37914013             JUNCTION            598.97     13.00       0.0
  37914023             JUNCTION            592.55     15.00       0.0    Yes
  37914027             JUNCTION            590.71     17.00       0.0
  37914030             JUNCTION            597.21     13.00       0.0    Yes
  37914038             JUNCTION            595.04     16.96       0.0
  37914039             JUNCTION            594.51     17.49       0.0
  37914040             JUNCTION            592.86     15.14       0.0    Yes
  37915008             JUNCTION            598.01     11.00       0.0    Yes
  37915009             JUNCTION            600.19     11.00       0.0
  37915010             JUNCTION            602.45     11.00       0.0    Yes
  37915011             JUNCTION            604.52     11.00       0.0
  37915012             JUNCTION            606.83      9.00       0.0    Yes
  37915013             JUNCTION            607.57      8.00       0.0
  37915014             JUNCTION            607.81      8.00       0.0
  37915015             JUNCTION            608.44      7.00       0.0
  37915016             JUNCTION            609.45      5.00       0.0    Yes
  37915017             JUNCTION            599.09      7.00       0.0
  37915018             JUNCTION            601.08      8.00       0.0    Yes
  37915025             JUNCTION            603.94     10.00       0.0    Yes
  37915031             JUNCTION            599.49     10.00       0.0    Yes
  37915032             JUNCTION            600.83     10.00       0.0    Yes
  37916006             JUNCTION            588.82     12.00       0.0
  37916007             JUNCTION            589.71     10.00       0.0
  37916008             JUNCTION            590.58      9.00       0.0    Yes
  37916009             JUNCTION            593.38      9.00       0.0
  37916010             JUNCTION            596.55      9.00       0.0    Yes
  37916012             JUNCTION            588.42     11.00       0.0    Yes
  37916015             JUNCTION            591.05     10.00       0.0    Yes
  37916018             JUNCTION            591.78     12.00       0.0    Yes
  37916019             JUNCTION            593.74     11.00       0.0
  37916020             JUNCTION            595.58     11.00       0.0    Yes
  37916023             JUNCTION            587.53     17.00       0.0    Yes
  37916028             JUNCTION            597.02      7.00       0.0    Yes
  37916029             JUNCTION            595.55      8.00       0.0
  38001003             JUNCTION            584.07     16.00       0.0    Yes
  38001006             JUNCTION            577.57     14.00       0.0
  38001007             JUNCTION            579.35     16.00       0.0    Yes
  38001008             JUNCTION            580.90     10.00       0.0
  38001009             JUNCTION            583.45     12.00       0.0    Yes
  38001010             JUNCTION            585.84     11.00       0.0
  38001012             JUNCTION            588.27     11.00       0.0    Yes
  38002003             JUNCTION            597.55     10.00       0.0
  38002004             JUNCTION            595.13     10.00       0.0    Yes
  38003007             JUNCTION            585.62      6.00       0.0    Yes
  38003008             JUNCTION            594.62     10.00       0.0    Yes
  38003009             JUNCTION            581.23     14.00       0.0
  38003010             JUNCTION            580.33     13.00       0.0    Yes
  38003011             JUNCTION            578.64     13.00       0.0
  38003012             JUNCTION            577.75     14.00       0.0
  38003013             JUNCTION            592.61     11.00       0.0
  38003014             JUNCTION            591.16     11.00       0.0    Yes
  38003018             JUNCTION            593.13     10.00       0.0    Yes
  38003021             JUNCTION            568.05     13.00       0.0    Yes
  38003022             JUNCTION            574.10     15.00       0.0    Yes
  38003023             JUNCTION            575.08     16.00       0.0    Yes
  38003024             JUNCTION            577.73     13.00       0.0    Yes
  38003025             JUNCTION            578.46     14.00       0.0
  38003026             JUNCTION            584.35     12.00       0.0    Yes
  38004005             JUNCTION            590.32     12.00       0.0    Yes
  38004008             JUNCTION            599.96     12.00       0.0    Yes
  38004009             JUNCTION            597.59     12.00       0.0
  38004010             JUNCTION            596.92     12.00       0.0
  38004011             JUNCTION            594.17     13.00       0.0
  38004014             JUNCTION            593.12     12.00       0.0    Yes
  38004015             JUNCTION            579.64      8.00       0.0    Yes
  38004016             JUNCTION            569.24     12.00       0.0
  38004018             JUNCTION            564.59     14.00       0.0    Yes
  38004019             JUNCTION            561.60     17.00       0.0    Yes
  38004020             JUNCTION            608.88     12.00       0.0
  38004021             JUNCTION            606.90     12.00       0.0
  38004022             JUNCTION            596.17     11.00       0.0
  38004024             JUNCTION            587.45     16.00       0.0    Yes
  38004025             JUNCTION            613.16      5.00       0.0    Yes
  38004026             JUNCTION            577.55     31.00       0.0
  38004027             JUNCTION            570.45     31.00       0.0    Yes
  38004028             JUNCTION            567.42     26.00       0.0    Yes
  38004030             JUNCTION            601.99      9.00       0.0    Yes
  38004031             JUNCTION            598.39     10.00       0.0
  38004032             JUNCTION            596.00     11.00       0.0
  38004033             JUNCTION            583.63     22.00       0.0
  38004034             JUNCTION            561.72     20.00       0.0    Yes
  38004035             JUNCTION            599.71      9.00       0.0
  38004040             JUNCTION            583.38     30.62       0.0    Yes
  38005001             JUNCTION            587.64     10.00       0.0
  38005002             JUNCTION            586.31     10.00       0.0
  38005003             JUNCTION            558.54     13.00       0.0
  38005004             JUNCTION            557.01     18.00       0.0    Yes
  38005005             JUNCTION            554.87     16.00       0.0
  38005006             JUNCTION            553.41     18.59       0.0    Yes
  38005008             JUNCTION            553.96     15.00       0.0
  38005009             JUNCTION            565.62      5.00       0.0    Yes
  38005010             JUNCTION            554.67     13.00       0.0
  38005011             JUNCTION            560.58     15.00       0.0    Yes
  38005013             JUNCTION            568.65     16.00       0.0    Yes
  38005014             JUNCTION            571.52     13.00       0.0
  38005015             JUNCTION            581.55     12.00       0.0
  38005016             JUNCTION            590.01     11.00       0.0    Yes
  38005017             JUNCTION            584.24     16.00       0.0
  38005018             JUNCTION            590.95     25.00       0.0    Yes
  38005024             JUNCTION            561.47      9.00       0.0    Yes
  38006001             JUNCTION            590.24     11.00       0.0
  38006002             JUNCTION            587.68     11.00       0.0    Yes
  38006003             JUNCTION            580.02      9.00       0.0
  38006004             JUNCTION            564.35     11.00       0.0    Yes
  38006014             JUNCTION            562.77     11.00       0.0    Yes
  38006015             JUNCTION            558.75     11.00       0.0
  38006016             JUNCTION            557.09     10.00       0.0    Yes
  38006017             JUNCTION            545.94     21.00       0.0
  38006019             JUNCTION            571.14     12.00       0.0    Yes
  38006020             JUNCTION            565.76     11.00       0.0    Yes
  38006021             JUNCTION            560.58      8.00       0.0
  38006022             JUNCTION            562.86      9.00       0.0    Yes
  38006023             JUNCTION            579.21      6.00       0.0    Yes
  38006024             JUNCTION            556.24     13.00       0.0    Yes
  38006025             JUNCTION            552.08     16.00       0.0
  38006027             JUNCTION            548.10     20.00       0.0    Yes
  38006030             JUNCTION            553.36     15.00       0.0
  38006035             JUNCTION            562.15      6.00       0.0
  38006037             JUNCTION            552.65     10.00       0.0
  38006038             JUNCTION            545.87     20.13       0.0    Yes
  38008002             JUNCTION            545.08      6.00       0.0    Yes
  38008003             JUNCTION            523.63     12.00       0.0    Yes
  38009011             JUNCTION            525.62     10.38       0.0    Yes
  38009013             JUNCTION            523.75     10.25       0.0    Yes
  38010003             JUNCTION            536.22     18.00       0.0    Yes
  38011002             JUNCTION            543.73     11.00       0.0
  38011003             JUNCTION            545.25     18.00       0.0
  38011004             JUNCTION            545.72     18.00       0.0    Yes
  38011007             JUNCTION            542.29     21.00       0.0    Yes
  38011018             JUNCTION            552.22     14.00       0.0    Yes
  38011019             JUNCTION            564.58     11.00       0.0
  38011020             JUNCTION            574.79     14.00       0.0
  38011022             JUNCTION            565.20     10.00       0.0    Yes
  38011023             JUNCTION            552.97     12.00       0.0
  38011024             JUNCTION            554.18     11.00       0.0    Yes
  38011025             JUNCTION            538.42     22.00       0.0    Yes
  38012003             JUNCTION            579.21     14.00       0.0    Yes
  38012004             JUNCTION            580.18     14.00       0.0
  38012005             JUNCTION            582.98     13.00       0.0
  38012006             JUNCTION            584.19     12.00       0.0    Yes
  38013003             JUNCTION            569.52     14.00       0.0    Yes
  38013006             JUNCTION            567.52     15.00       0.0
  38013008             JUNCTION            560.97     15.00       0.0    Yes
  38013009             JUNCTION            558.88     27.00       0.0    Yes
  38013010             JUNCTION            559.82     10.00       0.0    Yes
  38013011             JUNCTION            565.29      6.00       0.0    Yes
  38013012             JUNCTION            552.32     15.00       0.0    Yes
  38013013             JUNCTION            548.22     12.00       0.0    Yes
  38013014             JUNCTION            552.94     15.06       0.0    Yes
  38013016             JUNCTION            556.72     13.00       0.0    Yes
  38013017             JUNCTION            558.66     13.00       0.0    Yes
  38013018             JUNCTION            559.07     15.00       0.0    Yes
  38013019             JUNCTION            561.24     27.00       0.0    Yes
  38014004             JUNCTION            557.93     28.00       0.0    Yes
  38014005             JUNCTION            557.70     29.00       0.0    Yes
  38015002             JUNCTION            529.58     21.00       0.0    Yes
  38015003             JUNCTION            529.70     18.30       0.0    Yes
  38015004             JUNCTION            531.71     17.00       0.0    Yes
  38015005             JUNCTION            533.95     17.00       0.0
  38015011             JUNCTION            538.86      8.00       0.0    Yes
  38015014             JUNCTION            537.01      9.00       0.0    Yes
  38015015             JUNCTION            536.19      9.00       0.0
  38015023             JUNCTION            534.74     17.00       0.0    Yes
  38015027             JUNCTION            533.79     13.00       0.0    Yes
  38016013             JUNCTION            527.34     17.00       0.0    Yes
  38102001             JUNCTION            581.27      9.00       0.0    Yes
  38102002             JUNCTION            578.38      9.00       0.0
  38102003             JUNCTION            573.23     10.00       0.0    Yes
  38102004             JUNCTION            561.18      9.00       0.0
  38102005             JUNCTION            548.25     12.00       0.0    Yes
  38102006             JUNCTION            542.96     10.00       0.0    Yes
  38102009             JUNCTION            537.39      9.00       0.0    Yes
  38102010             JUNCTION            535.30      8.00       0.0
  38102011             JUNCTION            534.35     10.00       0.0
  38102014             JUNCTION            535.60     17.00       0.0    Yes
  38102015             JUNCTION            550.36     11.64       0.0
  38102037             JUNCTION            534.58     13.42       0.0    Yes
  38102038             JUNCTION            534.35     10.00       0.0    Yes
  38102045             JUNCTION            534.64      9.36       0.0    Yes
  38102046             JUNCTION            534.20      9.80       0.0
  38102047             JUNCTION            535.51     18.49       0.0
  38103001             JUNCTION            538.07     14.00       0.0    Yes
  38103003             JUNCTION            538.96     13.00       0.0    Yes
  38103005             JUNCTION            539.82     18.18       0.0
  38103007             JUNCTION            555.85     26.15       0.0
  38103008             JUNCTION            554.87     17.13       0.0
  38103009             JUNCTION            554.13     11.87       0.0
  38103012             JUNCTION            540.67     12.00       0.0    Yes
  38103014             JUNCTION            538.01     14.00       0.0    Yes
  38103017             JUNCTION            538.71     20.00       0.0    Yes
  38103018             JUNCTION            539.22     19.00       0.0    Yes
  38103019             JUNCTION            539.91     16.09       0.0    Yes
  38103020             JUNCTION            543.67     15.00       0.0
  38103021             JUNCTION            551.79     13.00       0.0
  38104001             JUNCTION            546.45     12.00       0.0    Yes
  38104003             JUNCTION            564.60     13.00       0.0    Yes
  38104004             JUNCTION            552.80     11.00       0.0    Yes
  38104005             JUNCTION            561.24     10.00       0.0
  38104006             JUNCTION            558.58     12.00       0.0    Yes
  38104008             JUNCTION            543.40     13.00       0.0
  38104016             JUNCTION            544.47     21.53       0.0    Yes
  38105001             JUNCTION            552.86     11.14       0.0    Yes
  38105002             JUNCTION            555.05     13.00       0.0    Yes
  38105003             JUNCTION            555.37     16.00       0.0
  38105004             JUNCTION            556.31     17.00       0.0    Yes
  38105006             JUNCTION            559.94     10.00       0.0    Yes
  38105007             JUNCTION            555.92     12.00       0.0    Yes
  38105008             JUNCTION            564.32     11.00       0.0
  38105010             JUNCTION            565.33     19.00       0.0
  38105013             JUNCTION            559.98     10.00       0.0    Yes
  38105014             JUNCTION            566.05     14.00       0.0
  38105015             JUNCTION            568.50     12.00       0.0    Yes
  38105019             JUNCTION            567.52     16.00       0.0    Yes
  38105020             JUNCTION            563.62     14.00       0.0    Yes
  38105023             JUNCTION            571.70     11.00       0.0    Yes
  38105024             JUNCTION            566.72     14.00       0.0    Yes
  38105025             JUNCTION            569.46     11.00       0.0
  38105026             JUNCTION            567.99     13.00       0.0    Yes
  38106010             JUNCTION            568.12     12.00       0.0
  38106011             JUNCTION            564.82     11.18       0.0    Yes
  38106012             JUNCTION            553.70     20.00       0.0    Yes
  38106013             JUNCTION            554.37     21.00       0.0
  38106014             JUNCTION            561.26     12.74       0.0
  38106023             JUNCTION            569.85     12.15       0.0    Yes
  38111017             JUNCTION            574.69     13.00       0.0    Yes
  38111018             JUNCTION            573.64     14.00       0.0    Yes
  38112002             JUNCTION            567.72     11.00       0.0    Yes
  38112008             JUNCTION            563.93     11.00       0.0    Yes
  38112009             JUNCTION            566.07     10.00       0.0    Yes
  38112013             JUNCTION            576.93     13.00       0.0    Yes
  38112014             JUNCTION            565.88     15.00       0.0
  38112015             JUNCTION            568.19     20.00       0.0
  38112016             JUNCTION            570.09     21.91       0.0    Yes
  38112017             JUNCTION            574.38     15.00       0.0
  38112018             JUNCTION            569.93     14.00       0.0    Yes
  38112019             JUNCTION            572.41     11.00       0.0    Yes
  38112022             JUNCTION            572.38     14.00       0.0    Yes
  38112023             JUNCTION            574.58     11.00       0.0    Yes
  38112026             JUNCTION            574.08     15.00       0.0    Yes
  38112027             JUNCTION            572.98     17.00       0.0
  38112028             JUNCTION            574.32     13.00       0.0
  38112029             JUNCTION            574.99     13.00       0.0    Yes
  38112030             JUNCTION            575.41     12.59       0.0    Yes
  38113005             JUNCTION            572.51     20.00       0.0    Yes
  38113007             JUNCTION            573.40     18.60       0.0
  38113008             JUNCTION            573.69     16.00       0.0    Yes
  38113009             JUNCTION            579.18     11.00       0.0    Yes
  38113011             JUNCTION            575.23     17.00       0.0    Yes
  38113013             JUNCTION            578.28     12.00       0.0    Yes
  38113014             JUNCTION            577.30     13.00       0.0
  38113015             JUNCTION            578.72     11.00       0.0    Yes
  38113022             JUNCTION            576.67     16.00       0.0    Yes
  38113023             JUNCTION            577.90     16.00       0.0
  38113026             JUNCTION            583.45      9.00       0.0    Yes
  38113027             JUNCTION            582.14     11.00       0.0
  38113029             JUNCTION            580.65     14.00       0.0    Yes
  38113030             JUNCTION            580.02     15.00       0.0    Yes
  38113034             JUNCTION            575.39     16.00       0.0    Yes
  40201001             JUNCTION            565.67     11.00       0.0    Yes
  40201003             JUNCTION            573.03     19.00       0.0    Yes
  40201004             JUNCTION            573.51     21.00       0.0    Yes
  40201005             JUNCTION            574.33     13.00       0.0
  40201006             JUNCTION            604.23     11.00       0.0
  40201007             JUNCTION            593.55     12.00       0.0
  40201008             JUNCTION            584.02      7.00       0.0    Yes
  40201009             JUNCTION            579.05     10.00       0.0
  40201010             JUNCTION            573.96     11.00       0.0
  40201011             JUNCTION            571.63     10.00       0.0    Yes
  40201014             JUNCTION            579.41     14.59       0.0    Yes
  40201016             JUNCTION            571.28     11.00       0.0    Yes
  40201017             JUNCTION            567.98     14.02       0.0    Yes
  40202003             JUNCTION            595.57      9.00       0.0    Yes
  40202004             JUNCTION            587.31     14.69       0.0
  40202005             JUNCTION            582.52     17.00       0.0    Yes
  40202008             JUNCTION            598.67     10.00       0.0    Yes
  40202009             JUNCTION            594.66     14.00       0.0
  40202010             JUNCTION            591.53     13.00       0.0    Yes
  40202011             JUNCTION            594.43      9.00       0.0    Yes
  40202012             JUNCTION            595.99      8.00       0.0    Yes
  40202016             JUNCTION            596.77     10.00       0.0    Yes
  40202017             JUNCTION            600.88     12.00       0.0
  40202021             JUNCTION            624.49     10.00       0.0    Yes
  40202022             JUNCTION            618.99      5.01       0.0    Yes
  40202023             JUNCTION            614.14      9.86       0.0
  40202024             JUNCTION            604.46     11.54       0.0    Yes
  40202025             JUNCTION            603.26     12.74       0.0    Yes
  40202026             JUNCTION            620.12     10.00       0.0    Yes
  40202027             JUNCTION            612.35     13.00       0.0    Yes
  40202028             JUNCTION            612.99     13.00       0.0    Yes
  40202029             JUNCTION            584.94     17.06       0.0
  40202030             JUNCTION            589.56     14.44       0.0    Yes
  40202031             JUNCTION            598.41      6.00       0.0    Yes
  40202032             JUNCTION            607.45      7.00       0.0    Yes
  40203001             JUNCTION            648.83      9.17       0.0    Yes
  40203002             JUNCTION            647.26     10.74       0.0    Yes
  40203003             JUNCTION            641.08      6.92       0.0    Yes
  40203004             JUNCTION            633.31      6.00       0.0    Yes
  40203005             JUNCTION            624.36     14.00       0.0    Yes
  40203006             JUNCTION            621.54     10.00       0.0
  40203008             JUNCTION            652.96     10.00       0.0    Yes
  40203009             JUNCTION            649.85      7.00       0.0    Yes
  40203010             JUNCTION            641.58      8.00       0.0    Yes
  40203020             JUNCTION            632.96      9.00       0.0    Yes
  40203021             JUNCTION            645.19      8.00       0.0
  40203022             JUNCTION            652.24     10.00       0.0    Yes
  40203023             JUNCTION            626.76     11.00       0.0    Yes
  40203030             JUNCTION            660.04     12.00       0.0    Yes
  40206001             JUNCTION            627.78     13.00       0.0
  40206002             JUNCTION            631.41     18.00       0.0    Yes
  40206007             JUNCTION            633.91     17.00       0.0    Yes
  40207001             JUNCTION            588.37     13.00       0.0    Yes
  40207002             JUNCTION            591.96     10.00       0.0
  40207003             JUNCTION            594.62     10.00       0.0    Yes
  40207004             JUNCTION            599.54     10.00       0.0
  40207005             JUNCTION            596.37      8.00       0.0
  40207006             JUNCTION            598.62     10.00       0.0    Yes
  40207007             JUNCTION            603.83     13.00       0.0    Yes
  40207008             JUNCTION            613.75     13.00       0.0    Yes
  40207010             JUNCTION            607.14     11.00       0.0
  40207011             JUNCTION            615.23     12.00       0.0    Yes
  40207016             JUNCTION            616.07      5.93       0.0    Yes
  40207017             JUNCTION            619.01      8.00       0.0
  40208001             JUNCTION            572.33     15.00       0.0    Yes
  40208002             JUNCTION            570.45     15.00       0.0    Yes
  40208003             JUNCTION            571.31     13.00       0.0
  40208004             JUNCTION            572.23     11.00       0.0    Yes
  40208005             JUNCTION            574.13     10.00       0.0    Yes
  40208007             JUNCTION            575.01     10.00       0.0
  40209001             JUNCTION            576.56     10.00       0.0    Yes
  40209003             JUNCTION            578.31     10.00       0.0    Yes
  40210001             JUNCTION            604.62     10.00       0.0
  40210002             JUNCTION            608.62     13.00       0.0    Yes
  40210003             JUNCTION            615.06     11.00       0.0    Yes
  40301003             JUNCTION            580.17      9.00       0.0    Yes
  40301004             JUNCTION            573.64     20.00       0.0
  40301008             JUNCTION            575.21     20.00       0.0
  40301009             JUNCTION            586.28     12.00       0.0
  40301010             JUNCTION            589.03     11.00       0.0    Yes
  40301018             JUNCTION            576.17     19.00       0.0
  40301019             JUNCTION            578.66     19.00       0.0
  40301022             JUNCTION            566.41     22.00       0.0
  40301023             JUNCTION            580.88     23.00       0.0
  40301024             JUNCTION            600.40      9.00       0.0
  40301031             JUNCTION            570.69     25.00       0.0    Yes
  40303001             JUNCTION            658.43     12.00       0.0    Yes
  40303002             JUNCTION            658.77     11.00       0.0
  40303003             JUNCTION            661.55     12.00       0.0
  40303004             JUNCTION            662.33     13.00       0.0    Yes
  40303010             JUNCTION            666.79     14.00       0.0    Yes
  40303011             JUNCTION            667.90     14.00       0.0
  40303012             JUNCTION            668.87     16.00       0.0    Yes
  40303014             JUNCTION            655.59     12.00       0.0    Yes
  40303015             JUNCTION            656.92     14.00       0.0
  40303016             JUNCTION            657.52     20.00       0.0
  40303017             JUNCTION            658.19     25.00       0.0    Yes
  40303018             JUNCTION            667.61     14.00       0.0
  40303019             JUNCTION            665.12     10.00       0.0
  40304002             JUNCTION            641.94     12.00       0.0
  40304003             JUNCTION            647.04     11.00       0.0    Yes
  40304019             JUNCTION            659.05     16.00       0.0    Yes
  40304020             JUNCTION            664.44      8.00       0.0    Yes
  40304024             JUNCTION            666.22     15.00       0.0    Yes
  40304025             JUNCTION            669.75     10.00       0.0    Yes
  40304032             JUNCTION            658.99     20.00       0.0    Yes
  40305007             JUNCTION            663.75     17.00       0.0    Yes
  40305009             JUNCTION            670.87     16.00       0.0    Yes
  40305010             JUNCTION            674.10     12.00       0.0
  40305011             JUNCTION            675.89     11.00       0.0    Yes
  40305014             JUNCTION            676.83      5.00       0.0
  40305015             JUNCTION            680.89      5.00       0.0
  40305016             JUNCTION            687.42      5.00       0.0
  40305017             JUNCTION            670.50     20.00       0.0    Yes
  40306002             JUNCTION            642.20     18.00       0.0
  40306005             JUNCTION            647.66     14.00       0.0
  40306007             JUNCTION            647.36     13.00       0.0    Yes
  40306008             JUNCTION            648.24     12.00       0.0
  40306009             JUNCTION            649.97     14.00       0.0    Yes
  40306010             JUNCTION            652.70     12.00       0.0
  40306014             JUNCTION            651.54     14.00       0.0    Yes
  40306017             JUNCTION            661.41     10.00       0.0    Yes
  40306021             JUNCTION            649.38     10.00       0.0
  40306024             JUNCTION            649.44     15.00       0.0
  40306026             JUNCTION            657.00     12.00       0.0
  40306031             JUNCTION            645.87     16.13       0.0    Yes
  40307003             JUNCTION            609.01     16.00       0.0    Yes
  40307004             JUNCTION            611.97     13.00       0.0    Yes
  40307005             JUNCTION            612.73     13.00       0.0    Yes
  40307006             JUNCTION            610.58     22.00       0.0
  40307007             JUNCTION            612.54     17.00       0.0
  40307008             JUNCTION            617.59     12.00       0.0
  40307009             JUNCTION            619.81     11.00       0.0    Yes
  40307011             JUNCTION            625.02     18.00       0.0    Yes
  40307012             JUNCTION            628.20     15.00       0.0
  40307013             JUNCTION            639.05     17.00       0.0    Yes
  40307014             JUNCTION            629.98     10.00       0.0    Yes
  40307015             JUNCTION            630.80      9.00       0.0
  40307018             JUNCTION            631.83      8.00       0.0    Yes
  40307023             JUNCTION            623.82      6.00       0.0
  40307026             JUNCTION            611.74     13.00       0.0
  40308001             JUNCTION            585.81     23.00       0.0
  40308003             JUNCTION            604.37      9.00       0.0
  40308004             JUNCTION            608.28      6.00       0.0
  40308007             JUNCTION            606.36      9.00       0.0
  40308011             JUNCTION            592.86     21.00       0.0    Yes
  40308013             JUNCTION            594.54      8.00       0.0    Yes
  40308014             JUNCTION            602.85     13.00       0.0
  40308015             JUNCTION            612.07     12.00       0.0
[...]
  40413027-40413026       1.00   0.00  0.00  0.00  0.00  1.00  0.00  0.00  1.00  0.00
  40413025-40414016       1.00   0.00  0.00  0.00  0.79  0.21  0.00  0.00  0.00  0.00
  40413024-40413025       1.00   0.00  0.00  0.00  0.00  0.00  0.00  1.00  0.00  0.00
  40413026-40413025       1.00   0.00  0.00  0.00  0.00  0.00  0.00  1.00  0.00  0.00
  40413036-40413037B      1.00   0.00  0.00  0.00  1.00  0.00  0.00  0.00  1.00  0.00
  40413035-40413036       1.00   0.00  0.00  0.00  0.00  1.00  0.00  0.00  1.00  0.00
  40304002-40413025       1.00   0.00  0.00  0.00  0.81  0.19  0.00  0.00  1.00  0.00
  40304019-40304003       1.00   0.00  0.00  0.00  0.00  0.00  0.00  1.00  0.00  0.00
  40304003-40304002       1.00   0.00  0.00  0.00  0.00  1.00  0.00  0.00  0.99  0.00
  40304032-40304003       1.00   0.00  0.00  0.00  0.00  0.00  0.00  1.00  0.00  0.00
  40415018-40415017       1.00   0.00  0.00  0.00  0.00  0.00  0.00  1.00  0.00  0.00
  40415020-40415018       1.00   0.00  0.00  0.00  0.00  0.00  0.00  1.00  0.00  0.00
  40415019-40415018       1.00   0.00  0.00  0.00  0.00  1.00  0.00  0.00  1.00  0.00
  40414021-40415019       1.00   0.00  0.00  0.00  0.00  1.00  0.00  0.00  0.00  0.00
  40414019B-40414015      1.00   0.00  0.00  0.00  0.00  1.00  0.00  0.00  0.00  0.00
  40414022-40414021       1.00   0.00  0.00  0.00  0.00  0.00  0.00  1.00  0.00  0.00
  40414015-40414021       1.00   0.00  0.00  0.00  0.00  1.00  0.00  0.00  1.00  0.00
  40411035-40414026       1.00   0.00  0.00  0.00  0.00  0.00  0.00  1.00  0.00  0.00
  40411036-40411035       1.00   0.00  0.00  0.00  0.00  1.00  0.00  0.00  1.00  0.00
  40411037-40411036       1.00   0.00  0.00  0.00  0.00  1.00  0.00  0.00  0.00  0.00
  40414024-40414023       1.00   0.00  0.00  0.00  0.00  1.00  0.00  0.00  1.00  0.00
  40414026-40414025       1.00   0.00  0.00  0.00  0.00  1.00  0.00  0.00  0.00  0.00
  40414025-40414024       1.00   0.00  0.00  0.00  0.00  1.00  0.00  0.00  0.99  0.00
  40414023-40414022       1.00   0.00  0.00  0.00  0.00  1.00  0.00  0.00  0.00  0.00
  37914013-37914030       1.00   1.00  0.00  0.00  0.00  0.00  0.00  0.00  0.00  0.00
  37914030-37914038       1.00   0.00  0.00  0.00  0.00  1.00  0.00  0.00  1.00  0.00
  38006016-38006017       1.00   0.00  0.00  0.00  0.00  0.00  0.00  1.00  0.00  0.00
  38006030-38006028B      1.00   0.00  0.00  0.00  0.00  0.00  0.00  1.00  0.00  0.00
  38006017-38006038       1.00   0.00  0.00  0.00  0.99  0.00  0.00  0.01  0.00  0.00
  38012005-38012004       1.00   0.00  0.00  0.00  0.00  0.72  0.00  0.28  0.00  0.00
  38012004-38012003       1.00   0.00  0.00  0.00  0.00  0.00  0.00  1.00  0.00  0.00
  38012006-38012005       1.00   0.00  0.00  0.00  1.00  0.00  0.00  0.00  1.00  0.00
  38011018-38006029B      1.00   0.00  0.00  0.00  0.00  0.00  0.00  1.00  0.00  0.00
  38006035-38006030       1.00   0.00  0.00  0.00  0.00  1.00  0.00  0.00  1.00  0.00
  38011022-38006035       1.00   0.00  0.00  0.00  0.00  1.00  0.00  0.00  0.00  0.00
  38012003-38011020       1.00   0.00  0.00  0.00  0.00  1.00  0.00  0.00  0.00  0.00
  38011020-38011019       1.00   0.00  0.00  0.00  0.00  1.00  0.00  0.00  0.66  0.00
  38011019-38011018       1.00   0.00  0.00  0.00  0.00  0.00  0.00  1.00  0.00  0.00
  38005016-38005015       1.00   0.00  0.00  0.00  0.00  1.00  0.00  0.00  0.00  0.00
  40301009-40301008       1.00   0.00  0.00  0.00  0.00  0.00  0.00  1.00  0.00  0.00
  40301003-40301004       1.00   0.00  0.00  0.00  0.00  1.00  0.00  0.00  1.00  0.00
  40301004-40301007B      1.00   0.00  0.00  0.00  0.00  1.00  0.00  0.00  0.21  0.00
  40301010-40301009       1.00   0.00  0.00  0.00  0.00  1.00  0.00  0.00  1.00  0.00
  40301008-40301007B      1.00   0.00  0.00  0.00  0.00  0.00  0.00  1.00  0.00  0.00
  40308007-40301024       1.00   1.00  0.00  0.00  0.00  0.00  0.00  0.00  0.00  0.00
  40301007B-40301031      1.00   0.00  0.00  0.00  0.00  0.00  0.00  1.00  0.00  0.00
  40301018-40301031       1.00   0.00  0.00  0.00  0.00  0.00  0.00  1.00  0.00  0.00
  40416021-40301018       1.00   0.00  0.00  0.00  0.00  0.00  0.00  1.00  0.00  0.00
  40301019-40301018       1.00   0.00  0.00  0.00  0.00  1.00  0.00  0.00  1.00  0.00
  38005008-38005026B      1.00   0.00  0.00  0.00  1.00  0.00  0.00  0.00  1.00  0.00
  38005009-38005008       1.00   0.00  0.00  0.00  0.00  0.00  0.00  1.00  0.00  0.00
  38004005-38005001       1.00   0.00  0.00  0.00  0.00  0.00  0.00  1.00  0.00  0.00
  38004016-38004018       1.00   0.00  0.00  0.00  0.00  0.00  0.00  1.00  0.00  0.00
  38004015-38004016       1.00   0.00  0.00  0.00  0.00  0.00  0.00  1.00  0.00  0.00
  38004014-38004015       1.00   0.00  0.00  0.00  0.00  0.00  0.00  1.00  0.00  0.00
  38004011-38004014       1.00   0.00  0.00  0.00  0.00  1.00  0.00  0.00  0.93  0.00
  38004009-38004010       1.00   0.00  0.00  0.00  0.00  1.00  0.00  0.00  0.00  0.00
  38004010-38004011       1.00   0.00  0.00  0.00  0.00  1.00  0.00  0.00  0.00  0.00
  38004008-38004009       1.00   0.00  0.00  0.00  0.76  0.24  0.00  0.00  0.14  0.00
  38005011-38005010       1.00   0.00  0.00  0.00  0.00  0.00  0.00  1.00  0.00  0.00
  38005001-38005002       1.00   0.00  0.00  0.00  0.00  0.00  0.00  1.00  0.00  0.00
  38005005-38005006       1.00   0.00  0.00  0.00  0.00  0.00  0.00  1.00  0.00  0.00
  38005003-38005006       1.00   0.00  0.00  0.00  0.00  0.00  0.00  1.00  0.00  0.00
  38005013-38005006       1.00   0.00  0.00  0.00  0.00  0.00  0.00  1.00  0.00  0.00
  38004018-38004019       1.00   0.00  0.00  0.00  0.99  0.00  0.00  0.01  0.99  0.00
  38004019-38005003       1.00   0.00  0.00  0.00  0.00  1.00  0.00  0.00  0.00  0.00
  38005015-38005014       1.00   0.00  0.00  0.00  0.00  0.00  0.00  1.00  0.00  0.00
  38004021-38004022       1.00   0.00  0.00  0.00  0.00  1.00  0.00  0.00  0.00  0.00
  38004028-38004019       1.00   0.00  0.00  0.00  0.00  1.00  0.00  0.00  1.00  0.00
  38005004-38005005       1.00   0.00  0.00  0.00  0.00  1.00  0.00  0.00  1.00  0.00
  38005017-38005013       1.00   0.00  0.00  0.00  0.00  1.00  0.00  0.00  1.00  0.00
  38005014-38005013       1.00   0.00  0.00  0.00  0.00  0.00  0.00  1.00  0.00  0.00
  38004034-38005004       1.00   0.00  0.00  0.00  0.00  1.00  0.00  0.00  0.93  0.00
  38004027-38004028       1.00   0.00  0.00  0.00  0.00  1.00  0.00  0.00  0.19  0.00
  38004022-38004024       1.00   0.00  0.00  0.00  0.00  0.00  0.00  1.00  0.00  0.00
  38004024-38004027       1.00   0.00  0.00  0.00  0.00  0.00  0.00  1.00  0.00  0.00
  38004032-38004033       1.00   0.00  0.00  0.00  0.00  1.00  0.00  0.00  0.01  0.00
  38004035-38004026       1.00   1.00  0.00  0.00  0.00  0.00  0.00  0.00  0.00  0.00
  38004033-38004037B      1.00   0.00  0.00  0.00  0.00  0.00  0.00  1.00  0.00  0.00
  38004037B-38004027      1.00   0.00  0.00  0.00  0.00  1.00  0.00  0.00  1.00  0.00
  38004026-38004037B      1.00   0.00  0.00  0.00  0.00  0.00  0.00  1.00  0.00  0.00
  38005018-38005017       1.00   0.00  0.00  0.00  0.00  0.00  0.00  1.00  0.00  0.00
  37913012-38004008       1.00   0.00  0.00  0.00  1.00  0.00  0.00  0.00  1.00  0.00
  38004020-38004021       1.00   0.00  0.00  0.00  0.00  1.00  0.00  0.00  0.00  0.00
  38004031-38004032       1.00   0.00  0.00  0.00  0.00  1.00  0.00  0.00  0.00  0.00
  38004040-38004026       1.00   0.00  0.00  0.00  0.00  1.00  0.00  0.00  0.91  0.00
  40301022-38004034       1.00   0.00  0.00  0.00  0.00  0.00  1.00  0.00  0.00  0.00
  38004030-38004031       1.00   0.00  0.00  0.00  0.00  1.00  0.00  0.00  0.99  0.00
  40308011-38005018       1.00   0.00  0.00  0.00  1.00  0.00  0.00  0.00  0.25  0.00
  40308004-40308003       1.00   1.00  0.00  0.00  0.00  0.00  0.00  0.00  0.00  0.00
  40308003-40308001       1.00   1.00  0.00  0.00  0.00  0.00  0.00  0.00  0.00  0.00
  40301024-40301023       1.00   1.00  0.00  0.00  0.00  0.00  0.00  0.00  0.00  0.00
  40301023-40301022       1.00   1.00  0.00  0.00  0.00  0.00  0.00  0.00  0.00  0.00
  40308001-40301023       1.00   1.00  0.00  0.00  0.00  0.00  0.00  0.00  0.00  0.00
  40301031-40301022       1.00   0.00  0.00  0.00  1.00  0.00  0.00  0.00  1.00  0.00
  37913044-37913047       1.00   0.00  0.00  0.00  0.00  1.00  0.00  0.00  0.95  0.00
  37913043-37913044       1.00   1.00  0.00  0.00  0.00  0.00  0.00  0.00  0.00  0.00
  37913029-37913037       1.00   0.00  0.00  0.00  0.00  0.00  0.00  1.00  0.00  0.00
  37913047-37913048       1.00   0.00  0.00  0.00  0.00  1.00  0.00  0.00  0.00  0.00
  37913048-38004040       1.00   0.00  0.00  0.00  0.00  1.00  0.00  0.00  1.00  0.00
  40309006-40309020B      1.00   0.00  0.00  0.00  0.00  1.00  0.00  0.00  0.87  0.00
  40308013-40308011       1.00   0.00  0.00  0.00  1.00  0.00  0.00  0.00  0.14  0.00
  38003007-38003009       1.00   0.00  0.00  0.00  0.00  1.00  0.00  0.00  0.97  0.00
  38003009-38003010       1.00   0.00  0.00  0.00  0.00  1.00  0.00  0.00  1.00  0.00
  37914023-37914027       1.00   0.00  0.00  0.00  0.00  1.00  0.00  0.00  1.00  0.00
  37914040-37914023       1.00   0.00  0.00  0.00  0.72  0.28  0.00  0.00  0.77  0.00
  37914038-37914039       1.00   0.00  0.00  0.00  0.00  1.00  0.00  0.00  0.00  0.00
  37914039-37914040       1.00   0.00  0.00  0.00  0.00  1.00  0.00  0.00  1.00  0.00
  38006024-38006025       1.00   0.00  0.00  0.00  0.00  1.00  0.00  0.00  0.85  0.00
  38006015-38006016       1.00   0.00  0.00  0.00  0.01  0.99  0.00  0.00  0.00  0.00
  38006025-38006026B      1.00   0.00  0.00  0.00  0.00  0.00  0.00  1.00  0.00  0.00
  38006019-38006020       1.00   0.00  0.00  0.00  0.00  0.00  0.00  1.00  0.00  0.00
  38003022-38003021       1.00   0.00  0.00  0.00  0.00  0.00  0.00  1.00  0.00  0.00
  38003010-38003011       1.00   0.00  0.00  0.00  0.00  1.00  0.00  0.00  0.97  0.00
  38003011-38003012       1.00   0.00  0.00  0.00  0.00  1.00  0.00  0.00  0.92  0.00
  38003012-38003022       1.00   0.00  0.00  0.00  0.00  0.00  0.00  1.00  0.00  0.00
  38003024-38003023       1.00   0.00  0.00  0.00  0.00  0.00  0.00  1.00  0.00  0.00
  38003026-38003025       1.00   0.00  0.00  0.00  0.00  0.00  0.00  1.00  0.00  0.00
  38003023-38003022       1.00   0.00  0.00  0.00  0.00  1.00  0.00  0.00  0.99  0.00
  38003025-38003024       1.00   0.00  0.00  0.00  0.00  1.00  0.00  0.00  1.00  0.00
  38003021-38006014       1.00   0.00  0.00  0.00  0.00  1.00  0.00  0.00  0.99  0.00
  38006022-38006024       1.00   0.00  0.00  0.00  0.00  1.00  0.00  0.00  1.00  0.00
  38006014-38006015       1.00   0.00  0.00  0.00  0.00  0.00  0.00  1.00  0.00  0.00
  38006022-38006021       1.00   1.00  0.00  0.00  0.00  0.00  0.00  0.00  0.00  0.00
  38006020-38006022       1.00   0.00  0.00  0.00  0.00  0.00  0.00  1.00  0.00  0.00
  38006021-38006015       1.00   1.00  0.00  0.00  0.00  0.00  0.00  0.00  0.00  0.00
  37914027-38003026       1.00   0.00  0.00  0.00  0.00  1.00  0.00  0.00  0.97  0.00
  37913038-37913039       1.00   0.00  0.00  0.00  0.00  1.00  0.00  0.00  0.88  0.00
  37913040-37913039       1.00   0.00  0.00  0.00  0.00  0.00  0.00  1.00  0.00  0.00
  40416010-37913040       1.00   0.00  0.00  0.00  0.00  1.00  0.00  0.00  0.03  0.00
  37913033-37913037       1.00   0.00  0.00  0.00  0.00  0.00  0.00  1.00  0.00  0.00
  37913037-37913038       1.00   0.00  0.00  0.00  0.00  1.00  0.00  0.00  0.00  0.00
  37913039-37913044       1.00   0.00  0.00  0.00  0.00  1.00  0.00  0.00  0.96  0.00
  40308014-40308013       1.00   1.00  0.00  0.00  0.00  0.00  0.00  0.00  0.00  0.00
  40416028-40301019       1.00   0.00  0.00  0.00  0.00  0.00  0.00  1.00  0.00  0.00
  40309003-40309006       1.00   0.00  0.00  0.00  0.00  1.00  0.00  0.00  0.00  0.00
  40309009-40309004       1.00   1.00  0.00  0.00  0.00  0.00  0.00  0.00  0.00  0.00
  40310001-40309009       1.00   1.00  0.00  0.00  0.00  0.00  0.00  0.00  0.00  0.00
  40309001-40309003       1.00   1.00  0.00  0.00  0.00  0.00  0.00  0.00  0.00  0.00
  40307018-40307015       1.00   0.00  0.00  0.00  1.00  0.00  0.00  0.00  0.00  0.00
  40307014-40307012       1.00   0.00  0.00  0.00  0.00  0.00  0.00  1.00  0.00  0.00
  40307015-40307014       1.00   0.00  0.00  0.00  0.00  0.00  0.00  1.00  0.00  0.00
  40311011-40306026       1.00   0.00  0.00  0.00  0.00  1.00  0.00  0.00  0.00  0.00
  40311013-40311011       1.00   0.00  0.00  0.00  1.00  0.00  0.00  0.00  1.00  0.00
  40307004-40307006       1.00   0.00  0.00  0.00  1.00  0.00  0.00  0.00  0.99  0.00
  40307023-40307026       1.00   1.00  0.00  0.00  0.00  0.00  0.00  0.00  0.00  0.00
  40307026-40307024B      1.00   0.00  1.00  0.00  0.00  0.00  0.00  0.00  0.00  0.00
  40310009-40310003       1.00   0.00  0.00  0.00  0.00  0.00  0.00  1.00  0.00  0.00
  40310002-40310001       1.00   0.00  0.00  0.00  1.00  0.00  0.00  0.00  1.00  0.00
  40310003-40310002       1.00   0.00  0.00  0.00  0.00  1.00  0.00  0.00  0.00  0.00
  40307006-40310003       1.00   0.00  0.00  0.00  0.00  0.00  0.00  1.00  0.00  0.00
  40306026-40306024       1.00   0.00  0.00  0.00  1.00  0.00  0.00  0.00  1.00  0.00
  40306024-40306021       1.00   0.00  0.00  0.00  1.00  0.00  0.00  0.00  0.00  0.00
  40306021-40306008       1.00   0.00  0.00  0.00  1.00  0.00  0.00  0.00  0.99  0.00
  40306008-40306007       1.00   0.00  0.00  0.00  0.00  0.00  0.00  1.00  0.00  0.00
  40416006-40416005       1.00   0.00  0.00  0.00  0.00  1.00  0.00  0.00  0.94  0.00
  40409023-40409022       1.00   0.00  0.00  0.00  0.00  1.00  0.00  0.00  1.00  0.00
  40413021-40413023       1.00   0.00  0.00  0.00  0.00  0.00  0.00  1.00  0.00  0.00
  40413023-40413024       1.00   0.00  0.00  0.00  0.00  0.00  0.00  1.00  0.00  0.00
  40415013-40415014       1.00   0.00  0.00  0.00  0.00  1.00  0.00  0.00  0.00  0.00
  40415015-40415020       1.00   0.00  0.00  0.00  0.00  0.00  0.00  1.00  0.00  0.00
  40415014-40415015       1.00   0.00  0.00  0.00  0.00  0.00  0.00  1.00  0.00  0.00
  37913027-37913028       1.00   0.00  0.00  0.00  0.99  0.01  0.00  0.00  0.96  0.00
  37913028-37913029       1.00   0.00  0.00  0.00  0.00  0.00  0.00  1.00  0.00  0.00
  40416003-40416001       1.00   0.00  0.00  0.00  0.00  0.00  0.00  1.00  0.00  0.00
  40409020-40409018       1.00   0.00  0.00  0.00  0.00  1.00  0.00  0.00  1.00  0.00
  40409003-40409005       1.00   0.00  0.00  0.00  0.00  1.00  0.00  0.00  0.01  0.00
  40409004-40409016       1.00   0.00  0.00  0.00  1.00  0.00  0.00  0.00  0.96  0.00
  40409005-40409015       1.00   0.00  0.00  0.00  0.00  0.00  0.00  1.00  0.00  0.00
  40416004-40416003       1.00   0.00  0.00  0.00  0.00  1.00  0.00  0.00  1.00  0.00
  40409021-40409020       1.00   0.00  0.00  0.00  0.00  1.00  0.00  0.00  0.93  0.00
  40416002-40416008       1.00   0.00  0.00  0.00  0.00  0.00  0.00  1.00  0.00  0.00
  40416001-40416002       1.00   0.00  0.00  0.00  0.00  1.00  0.00  0.00  0.74  0.00
  40409019-40416001       1.00   0.00  0.00  0.00  0.00  0.00  0.00  1.00  0.00  0.00
  40409016-40409017       1.00   0.00  0.00  0.00  0.00  1.00  0.00  0.00  0.00  0.00
  40409015-40409018       1.00   0.00  0.00  0.00  0.00  0.00  0.00  1.00  0.00  0.00
  40409018-40409019       1.00   0.00  0.00  0.00  0.00  1.00  0.00  0.00  0.95  0.00
  40409017-40409018       1.00   0.00  0.00  0.00  0.00  0.09  0.00  0.91  0.09  0.00
  38011024-38011007       1.00   0.00  0.00  0.00  0.00  0.00  0.00  1.00  0.00  0.00
  38005024-38005025B      1.00   0.00  0.00  0.00  0.00  0.00  0.00  1.00  0.00  0.00
  38004025-38004020       1.00   0.00  0.00  0.00  0.00  0.00  0.00  1.00  0.00  0.00
  38003008-38003009       1.00   0.00  0.00  0.00  0.00  0.00  0.00  1.00  0.00  0.00
  38006037-38006027       1.00   1.00  0.00  0.00  0.00  0.00  0.00  0.00  0.00  0.00
  38003018-38003023       1.00   0.00  0.00  0.00  0.00  0.00  0.00  1.00  0.00  0.00
  40416011-40416010       1.00   0.00  0.00  0.00  0.00  1.00  0.00  0.00  0.01  0.00
  40416012-40416011       1.00   0.00  0.00  0.00  0.00  1.00  0.00  0.00  0.00  0.00
  40416008-37913033       1.00   0.00  0.00  0.00  0.00  0.00  0.00  1.00  0.00  0.00
  37913063-37913037       1.00   0.00  0.00  0.00  1.00  0.00  0.00  0.00  0.98  0.00
  40416023-40416025       1.00   0.00  0.00  0.00  0.00  0.00  0.00  1.00  0.00  0.00
  40416005-40416004       1.00   0.00  0.00  0.00  0.00  1.00  0.00  0.00  0.09  0.00
  40409022-40409021       1.00   0.00  0.00  0.00  0.00  1.00  0.00  0.00  0.89  0.00
  38006029B-38011007      1.00   0.00  0.00  0.00  0.01  0.99  0.00  0.00  0.06  0.00
  38006027-38006028B      1.00   0.00  0.00  0.00  0.00  1.00  0.00  0.00  0.00  0.00
  38006028B-38006038      1.00   0.00  0.00  0.00  0.01  0.99  0.00  0.00  0.96  0.00
  38006038-38006029B      1.00   0.00  0.00  0.00  0.01  0.99  0.00  0.00  0.76  0.00
  38005026B-38006026B     1.00   0.00  0.00  0.00  0.72  0.28  0.00  0.00  0.00  0.00
  38005025B-38005007B     1.00   0.00  0.00  0.00  0.00  1.00  0.00  0.00  0.87  0.00
  38005006-38005025B      1.00   0.00  0.00  0.00  0.01  0.99  0.00  0.00  0.00  0.00
  38005007B-38005026B     1.00   0.00  0.00  0.00  0.72  0.28  0.00  0.00  0.97  0.00
  38006026B-38006027      1.00   0.00  0.00  0.00  0.01  0.99  0.00  0.00  0.87  0.00
  38011002-38010003       1.00   0.00  0.00  0.00  0.00  0.00  0.00  1.00  0.00  0.00
  38011003-38011002       1.00   0.00  0.00  0.00  1.00  0.00  0.00  0.00  1.00  0.00
  38011004-38011003       1.00   0.00  0.00  0.00  1.00  0.00  0.00  0.00  0.00  0.00
  38011023-38011025       1.00   0.00  0.00  0.00  0.00  0.00  0.00  1.00  0.00  0.00
  38006003-38006004       1.00   0.00  0.00  0.00  0.00  1.00  0.00  0.00  1.00  0.00
  38006004-38011023       1.00   0.00  0.00  0.00  0.00  0.00  0.00  1.00  0.00  0.00
  38006001-38006002       1.00   0.00  0.00  0.00  0.01  0.99  0.00  0.00  0.00  0.00
  38003014-38006001       1.00   0.00  0.00  0.00  0.82  0.18  0.00  0.00  0.17  0.00
  38003013-38003014       1.00   0.00  0.00  0.00  1.00  0.00  0.00  0.00  1.00  0.00
  38002004-38003013       1.00   0.00  0.00  0.00  0.00  0.00  0.00  1.00  0.00  0.00
  38002003-38002004       1.00   0.00  0.00  0.00  0.85  0.15  0.00  0.00  0.89  0.00
  38006002-38006003       1.00   0.00  0.00  0.00  0.00  1.00  0.00  0.00  0.00  0.00
  37915032-37915031       1.00   0.00  0.00  0.00  1.00  0.00  0.00  0.00  0.99  0.00
  37915031-38002003       1.00   0.00  0.00  0.00  0.00  0.00  0.00  1.00  0.00  0.00
  37915025-37915032       1.00   0.00  0.00  0.00  0.00  0.00  0.00  1.00  0.00  0.00
  38010003-38015023       1.00   0.00  0.00  0.00  1.00  0.00  0.00  0.00  0.86  0.00
  38011025-38010003       1.00   0.00  0.00  0.00  1.00  0.00  0.00  0.00  0.95  0.00
  38011007-38011008B      1.00   0.00  0.00  0.00  0.00  1.00  0.00  0.00  0.00  0.00
  38011008B-38011025      1.00   0.00  0.00  0.00  0.01  0.99  0.00  0.00  1.00  0.00
  40309016-40309015       1.00   0.00  1.00  0.00  0.00  0.00  0.00  0.00  0.00  0.00
  40309015-40309020B      1.00   1.00  0.00  0.00  0.00  0.00  0.00  0.00  0.00  0.00
  40309020B-40309008      1.00   0.00  0.00  0.00  0.00  1.00  0.00  0.00  0.00  0.00
  
  
  *************************
  Conduit Surcharge Summary
  *************************
  
  ----------------------------------------------------------------------------
                                                           Hours        Hours 
                         --------- Hours Full --------   Above Full   Capacity
  Conduit                Both Ends  Upstream  Dnstream   Normal Flow   Limited
  ----------------------------------------------------------------------------
  36505023-36505011           0.01      0.01      0.01      0.56         0.01
  40310015-40310031           0.75      4.05      0.75      6.83         0.75
  40301022-38004034           0.01      0.01      0.01      2.51         0.01
  

  Analysis begun on:  Fri Mar  6 14:51:03 2026
  Analysis ended on:  Fri Mar  6 14:52:44 2026
  Total elapsed time: 00:01:41