
  EPA STORM WATER MANAGEMENT MODEL - VERSION 5.2 (Build 5.2.4)
  ------------------------------------------------------------

  WARNING 04: minimum elevation drop used for Conduit 0040699686.1
  WARNING 04: minimum elevation drop used for Conduit 0072599959.1
  WARNING 04: minimum elevation drop used for Conduit 0101498758.2
  WARNING 04: minimum elevation drop used for Conduit 0134398671.1
  WARNING 04: minimum elevation drop used for Conduit 0246499284.1
  WARNING 04: minimum elevation drop used for Conduit 0262695711.1
  WARNING 04: minimum elevation drop used for Conduit 0328597705.1
  WARNING 04: minimum elevation drop used for Conduit 0351697951.2
  WARNING 04: minimum elevation drop used for Conduit 0525695406.1
  WARNING 04: minimum elevation drop used for Conduit 0569595058.1
  WARNING 04: minimum elevation drop used for Conduit 0569595058.2
  WARNING 04: minimum elevation drop used for Conduit 0611495635.1
  WARNING 04: minimum elevation drop used for Conduit 0651088287.1
  WARNING 04: minimum elevation drop used for Conduit 0694295594.1
  WARNING 04: minimum elevation drop used for Conduit 0699095681.1
  WARNING 04: minimum elevation drop used for Conduit 0724889138.1
  WARNING 04: minimum elevation drop used for Conduit 0793695679.1
  WARNING 04: minimum elevation drop used for Conduit 1105196250.1
  WARNING 04: minimum elevation drop used for Conduit 1127296124.1
  WARNING 04: minimum elevation drop used for Conduit 1128396125.1
  WARNING 02: maximum depth increased for Node 0374197698
  WARNING 02: maximum depth increased for Node 0696095625
  WARNING 02: maximum depth increased for Node 0486498066
  
  ****************
  Analysis Options
  ****************
  Flow Units ............... LPS
  Process Models:
    Rainfall/Runoff ........ YES
    RDII ................... NO
    Snowmelt ............... NO
    Groundwater ............ NO
    Flow Routing ........... YES
    Ponding Allowed ........ YES
    Water Quality .......... NO
  Infiltration Method ...... CURVE_NUMBER
  Flow Routing Method ...... DYNWAVE
  Surcharge Method ......... EXTRAN
  Starting Date ............ 01/01/2025 00:00:00
  Ending Date .............. 01/04/2025 00:00:00
  Antecedent Dry Days ...... 5.0
  Report Time Step ......... 00:01:00
  Wet Time Step ............ 00:01:00
  Dry Time Step ............ 00:01:00
  Routing Time Step ........ 30.00 sec
  Variable Time Step ....... YES
  Maximum Trials ........... 8
  Number of Threads ........ 1
  Head Tolerance ........... 0.001524 m
  
  
  **************************        Volume         Depth
  Runoff Quantity Continuity     hectare-m            mm
  **************************     ---------       -------
  Total Precipitation ......       318.166        28.891
  Evaporation Loss .........        27.783         2.523
  Infiltration Loss ........       206.909        18.788
  Surface Runoff ...........        83.496         7.582
  Final Storage ............         0.000         0.000
  Continuity Error (%) .....        -0.007
  
  
  **************************        Volume        Volume
  Flow Routing Continuity        hectare-m      10^6 ltr
  **************************     ---------     ---------
  Dry Weather Inflow .......         0.000         0.000
  Wet Weather Inflow .......        83.528       835.289
  Groundwater Inflow .......         0.000         0.000
  RDII Inflow ..............         0.000         0.000
  External Inflow ..........        10.156       101.556
  External Outflow .........        72.132       721.332
  Flooding Loss ............        12.974       129.742
  Evaporation Loss .........         0.712         7.118
  Exfiltration Loss ........         0.283         2.832
  Initial Stored Volume ....        52.809       528.094
  Final Stored Volume ......       113.948      1139.491
  Continuity Error (%) .....       -36.560
  
  
  *************************
  Highest Continuity Errors
  *************************
  Node 0696795637 (-163.81%)
  Node 0696095625 (-64.77%)
  Node 0697495650 (-43.57%)
  Node 2199991913 (18.20%)
  Node 0170898634 (-18.09%)
  
  
  ***************************
  Time-Step Critical Elements
  ***************************
  Link 0040999692.1 (51.56%)
  Link 0324597779.1 (4.69%)
  Link 0329197747.1 (2.68%)
  Link 0525695406.1 (1.82%)
  Link 1127296124.1 (1.67%)
  
  
  ********************************
  Highest Flow Instability Indexes
  ********************************
  Link DR19.PS1 (111)
  Link 0351697951.2 (110)
  Link 0638596070.1 (102)
  Link 0051299588.1 (100)
  Link 0040699686.1 (93)
  
  
  *********************************
  Most Frequent Nonconverging Nodes
  *********************************
  Node 0039199701 (90.34%)
  Node 0079600813 (90.34%)
  Node 0149888424 (90.34%)
  Node 0155500952 (90.34%)
  Node 0247199359 (90.34%)
  
  
  *************************
  Routing Time Step Summary
  *************************
  Minimum Time Step           :     0.50 sec
  Average Time Step           :     3.99 sec
  Maximum Time Step           :    12.59 sec
  % of Time in Steady State   :     0.00
  Average Iterations per Step :     7.74
  % of Steps Not Converging   :    90.34
  Time Step Frequencies       :
     30.000 - 13.228 sec      :     0.00 %
     13.228 -  5.833 sec      :     7.09 %
      5.833 -  2.572 sec      :    69.52 %
      2.572 -  1.134 sec      :    14.76 %
      1.134 -  0.500 sec      :     8.63 %
  
  
  ***************************
  Subcatchment Runoff Summary
  ***************************
  
  ------------------------------------------------------------------------------------------------------------------------------
                            Total      Total      Total      Total     Imperv       Perv      Total       Total     Peak  Runoff
                           Precip      Runon       Evap      Infil     Runoff     Runoff     Runoff      Runoff   Runoff   Coeff
  Subcatchment                 mm         mm         mm         mm         mm         mm         mm    10^6 ltr      LPS
  ------------------------------------------------------------------------------------------------------------------------------
  SUB-0017999181            28.89       0.00       2.22      17.39      11.53       0.11       9.29        0.10    63.23   0.322
  SUB-0030799134            28.89       0.00       2.33      19.69       9.51       0.04       6.88        0.18    98.78   0.238
  SUB-0030999178            28.89       0.00       2.68      16.47      13.33       1.68       9.75        0.40   195.72   0.337
  SUB-0041699091            28.89       0.00       2.29      19.35      10.03       0.29       7.25        0.06    41.04   0.251
  SUB-0046599168            28.89       0.00       2.45      20.09       9.65       0.14       6.35        0.25   134.05   0.220
  SUB-0049199381            28.89       0.00       2.68      16.91      13.10       0.98       9.31        0.50   238.27   0.322
  SUB-0052398993            28.89       0.00       2.40      19.84       9.86       0.38       6.66        0.12    73.98   0.230
  SUB-0052999582            28.89       0.00       1.86      16.29      10.74       0.00      10.74        0.17   102.74   0.372
  SUB-0053099623            28.89       0.00       1.78      16.29      10.83       0.00      10.83        0.03    21.43   0.375
  SUB-0053699540            28.89       0.00       2.50      17.19      12.29       1.65       9.20        0.17    91.39   0.319
  SUB-0053999668            28.89       0.00       2.49      17.81      11.73       0.23       8.60        0.16    82.92   0.298
  SUB-0054699144            28.89       0.00       1.88      13.57      13.44       0.00      13.44        0.04    22.54   0.465
  SUB-0055900351            28.89       0.00       1.91      16.29      10.69       0.00      10.69        0.14    77.97   0.370
  SUB-0057899711            28.89       0.00       1.80      16.29      10.81       0.00      10.81        0.05    35.13   0.374
  SUB-0058399057            28.89       0.00       2.26      19.94       9.36       0.14       6.70        0.07    47.53   0.232
  SUB-0059800356            28.89       0.00       2.30      20.24       8.87       0.02       6.35        0.26   148.10   0.220
  SUB-0061599219            28.89       0.00       2.32      18.49      10.76       0.16       8.09        0.21   127.62   0.280
  SUB-0061798844            28.89       0.00       2.31      17.78      11.57       0.31       8.80        0.10    58.86   0.305
  SUB-0062299787            28.89       0.00       1.80      16.29      10.81       0.00      10.81        0.05    33.39   0.374
  SUB-0063299385            28.89       0.00       2.25      18.61      10.51       0.08       8.03        0.08    51.00   0.278
  SUB-0066898899            28.89       0.00       2.37      18.24      11.30       0.44       8.28        0.12    72.10   0.287
  SUB-0068600192            28.89       0.00       2.65      16.39      13.35       1.60       9.85        0.35   170.98   0.341
  SUB-0069899953            28.89       0.00       2.31      17.59      11.64       0.22       8.99        0.23   139.66   0.311
  SUB-0069900213            28.89       0.00       1.88      16.29      10.72       0.00      10.72        0.07    40.21   0.371
  SUB-0070499925            28.89       0.00       1.78      16.29      10.83       0.00      10.83        0.04    25.65   0.375
  SUB-0070599058            28.89       0.00       2.44      18.82      10.89       0.32       7.64        0.26   145.03   0.264
  SUB-0071098953            28.89       0.00       2.51      18.46      11.16       0.19       7.92        0.33   168.31   0.274
  SUB-0073000152            28.89       0.00       2.78      15.66      14.09       2.69      10.46        0.24   105.41   0.362
  SUB-0074300016            28.89       0.00       1.76      16.29      10.85       0.00      10.85        0.08    58.54   0.375
  SUB-0074998722            28.89       0.00       2.36      18.82      10.71       0.24       7.71        0.31   177.96   0.267
  SUB-0076400150            28.89       0.00       1.80      16.29      10.81       0.00      10.81        0.04    28.51   0.374
  SUB-0079800680            28.89       0.00       2.36      19.76       9.82       0.19       6.77        0.29   172.89   0.234
  SUB-0082200357            28.89       0.00       2.35      18.94      10.34       0.08       7.60        0.65   361.44   0.263
  SUB-0083100792            28.89       0.00       2.08      17.05       9.76       0.00       9.76        0.38   147.89   0.338
  SUB-0084099993            28.89       0.00       2.62      17.10      12.67       0.41       9.18        1.94   926.85   0.318
  SUB-0085299700            28.89       0.00       1.83      13.73      13.45       0.00      13.33        0.07    46.98   0.461
  SUB-0085499252            28.89       0.00       2.36      18.48      10.97       0.37       8.05        0.12    70.56   0.279
  SUB-0085800776            28.89       0.00       2.23      18.26      10.26       0.00       8.40        0.47   248.11   0.291
  SUB-0088899763            28.89       0.00       1.91      13.97      13.45       0.00      13.01        0.04    28.45   0.450
  SUB-0089200080            28.89       0.00       2.28      18.61      10.52       0.08       8.00        0.19   113.52   0.277
  SUB-0089498899            28.89       0.00       2.47      18.99      10.76       0.31       7.43        0.25   137.71   0.257
  SUB-0090498633            28.89       0.00       2.41      18.19      11.44       0.52       8.30        0.21   124.40   0.287
  SUB-0093699111            28.89       0.00       2.39      17.85      11.52       0.20       8.65        0.15    86.32   0.300
  SUB-0097700048            28.89       0.00       1.97      16.23      10.69       0.00      10.69        0.27   133.75   0.370
  SUB-0097700082            28.89       0.00       2.48      19.26      10.28       0.08       7.15        0.93   458.94   0.248
  SUB-0098098507            28.89       0.00       2.62      18.80      11.17       0.45       7.48        0.23   116.90   0.259
  SUB-0104999585            28.89       0.00       1.80      13.57      13.53       0.00      13.53        0.08    56.95   0.468
  SUB-0106798937            28.89       0.00       2.18      18.50      10.33       0.02       8.22        0.09    58.30   0.284
  SUB-0107001121            28.89       0.00       2.20      19.35       9.60       0.02       7.34        0.43   268.33   0.254
  SUB-0110798496            28.89       0.00       2.01      13.57      13.31       0.00      13.31        0.06    31.75   0.461
  SUB-0110998866            28.89       0.00       2.70      16.92      12.73       0.73       9.27        0.39   202.46   0.321
  SUB-0112698372            28.89       0.00       2.47      17.37      12.21       1.05       9.06        0.05    30.27   0.314
  SUB-0115099521            28.89       0.00       2.89      17.42      12.94       1.20       8.59        0.99   423.22   0.297
  SUB-0115500084            28.89       0.00       2.30      18.73      10.62       0.40       7.87        0.16   106.82   0.272
  SUB-0116098537            28.89       0.00       2.50      19.48      10.40       0.22       6.91        0.25   129.81   0.239
  SUB-0117899056            28.89       0.00       2.37      18.90      10.62       0.22       7.62        0.26   153.59   0.264
  SUB-0121099078            28.89       0.00       1.91      16.14      10.84       0.00      10.84        0.29   157.15   0.375
  SUB-0121899094            28.89       0.00       1.78      16.20      10.91       0.00      10.91        0.05    37.69   0.378
  SUB-0122599088            28.89       0.00       2.69      17.49      12.18       0.31       8.71        0.71   334.79   0.301
  SUB-0124099015            28.89       0.00       2.29      19.34      10.03       0.14       7.26        0.12    76.46   0.251
  SUB-0124500085            28.89       0.00       2.37      19.38      10.09       0.16       7.15        0.55   326.47   0.247
  SUB-0125399152            28.89       0.00       1.95      13.53      13.68       0.00      13.41        0.06    36.01   0.464
  SUB-0125498263            28.89       0.00       1.90      16.29      10.71       0.00      10.71        0.07    40.23   0.371
  SUB-0128398508            28.89       0.00       2.67      18.58      11.46       0.45       7.65        0.43   209.68   0.265
  SUB-0129899227            28.89       0.00       2.06      14.88      13.37       0.01      11.95        0.02    13.59   0.414
  SUB-0129998408            28.89       0.00       1.96      23.67       4.36       0.00       3.26        0.21   120.51   0.113
  SUB-0133298931            28.89       0.00       1.85      16.29      10.76       0.00      10.76        0.04    26.17   0.372
  SUB-0133600087            28.89       0.00       1.78      16.29      10.82       0.00      10.82        0.06    43.21   0.375
  SUB-0133799293            28.89       0.00       1.81      13.57      13.52       0.00      13.52        0.03    20.65   0.468
  SUB-0136499393            28.89       0.00       2.57      19.44      10.34       0.10       6.88        1.63   772.41   0.238
  SUB-0136800167            28.89       0.00       1.81      16.29      10.80       0.00      10.80        0.09    60.25   0.374
  SUB-0140599826            28.89       0.00       1.88      16.29      10.73       0.00      10.73        0.18   108.10   0.371
  SUB-0141298860            28.89       0.00       2.49      18.50      10.98       0.10       7.90        0.32   158.64   0.274
  SUB-0142100067            28.89       0.00       1.78      16.29      10.83       0.00      10.83        0.05    37.55   0.375
  SUB-0144299382            28.89       0.00       1.93      13.57      13.39       0.00      13.39        0.10    58.44   0.464
  SUB-0144400828            28.89       0.00       2.39      19.99       9.22       0.02       6.52        0.81   403.02   0.226
  SUB-0145998815            28.89       0.00       2.30      17.76      10.98       0.01       8.83        0.28   148.62   0.306
  SUB-0145999326            28.89       0.00       2.47      21.04       8.19       0.04       5.38        0.48   230.71   0.186
  SUB-0149598000            28.89       0.00       3.02      16.07      14.21       1.97       9.81        0.33   121.73   0.339
  SUB-0152200963            28.89       0.00       1.78      16.96      10.15       0.00      10.15        0.05    36.65   0.351
  SUB-0152999615            28.89       0.00       1.86      16.29      10.75       0.00      10.75        0.17    99.69   0.372
  SUB-0157099461            28.89       0.00       1.85      16.29      10.76       0.00      10.76        0.12    74.82   0.372
  SUB-0159698644            28.89       0.00       2.26      18.13      10.65       0.01       8.50        0.14    77.26   0.294
  SUB-0159799437            28.89       0.00       1.93      16.28      10.74       0.00      10.68        0.18    98.34   0.370
  SUB-0162798098            28.89       0.00       1.78      24.71       2.78       0.00       2.40        0.05    37.50   0.083
  SUB-0162898614            28.89       0.00       1.96      16.29      10.65       0.00      10.65        0.10    48.78   0.369
  SUB-0165998620            28.89       0.00       1.71      26.02       1.16       0.00       1.16        0.03    19.74   0.040
  SUB-0170398605            28.89       0.00       1.93      16.29      10.67       0.00      10.67        0.07    38.75   0.369
  SUB-0172798667            28.89       0.00       1.78      16.29      10.82       0.00      10.82        0.02    10.60   0.375
  SUB-0179398855            28.89       0.00       2.32      18.83      10.09       0.03       7.74        0.40   216.63   0.268
  SUB-0180399089            28.89       0.00       1.87      16.29      10.74       0.00      10.74        0.18   108.65   0.372
  SUB-0181498494            28.89       0.00       1.65      26.74       0.50       0.00       0.50        0.01     9.52   0.017
  SUB-0184798238            28.89       0.00       2.24      23.07       6.20       0.00       3.58        0.35   187.48   0.124
  SUB-0187197724            28.89       0.00       2.46      14.98      14.22       0.64      11.45        0.20   107.78   0.396
  SUB-0187698781            28.89       0.00       2.63      14.38      14.80       2.60      11.89        0.16    76.59   0.412
  SUB-0188298432            28.89       0.00       2.40      20.91       9.12       0.07       5.58        0.33   184.17   0.193
  SUB-0188398678            28.89       0.00       2.74      15.64      14.16       1.39      10.51        0.30   136.99   0.364
  SUB-0188998524            28.89       0.00       1.90      16.22      10.78       0.00      10.77        0.13    72.24   0.373
  SUB-0190599058            28.89       0.00       2.46      16.97      11.20       0.00       9.46        0.63   240.66   0.327
  SUB-0193598483            28.89       0.00       1.84      16.29      10.77       0.00      10.77        0.13    80.69   0.373
  SUB-0197998444            28.89       0.00       1.80      16.29      10.81       0.00      10.81        0.12    77.46   0.374
  SUB-0203797675            28.89       0.00       2.78      15.60      13.74       0.48      10.51        0.42   199.53   0.364
  SUB-0207997635            28.89       0.00       1.88      13.57      13.44       0.00      13.44        0.06    39.12   0.465
  SUB-0208098613            28.89       0.00       1.94      13.57      13.38       0.00      13.38        0.11    58.38   0.463
  SUB-0209598306            28.89       0.00       1.87      16.29      10.74       0.00      10.74        0.15    90.64   0.372
  SUB-0209598690            28.89       0.00       2.00      13.57      13.32       0.00      13.32        0.13    64.30   0.461
  SUB-0209698762            28.89       0.00       1.88      20.05       7.18       0.00       6.96        0.05    33.30   0.241
  SUB-0210598333            28.89       0.00       1.89      16.06      10.94       0.00      10.94        0.21   121.31   0.379
  SUB-0212095920            28.89       0.00       2.97      16.40      13.91       0.99       9.52        1.21   466.19   0.330
  SUB-0212397874            28.89       0.00       1.85      13.57      13.47       0.00      13.47        0.08    50.06   0.466
  SUB-0214096480            28.89       0.00       2.91      15.20      14.62       2.78      10.78        1.44   575.32   0.373
  SUB-0214197986            28.89       0.00       2.90      17.87      12.68       0.74       8.12        0.36   145.59   0.281
  SUB-0215998078            28.89       0.00       2.29      20.35       7.91       0.00       6.24        0.50   268.20   0.216
  SUB-0216498104            28.89       0.00       2.39      16.93      12.02       0.06       9.57        0.33   169.69   0.331
  SUB-0217097544            28.89       0.00       1.94      13.57      13.38       0.00      13.38        0.09    52.24   0.463
  SUB-0220595848            28.89       0.00       3.09      14.74      15.18       3.48      11.07        0.74   253.74   0.383
  SUB-0222899024            28.89       0.00       1.85      16.29      10.75       0.00      10.75        0.23   141.20   0.372
  SUB-0223098488            28.89       0.00       1.87      13.57      13.45       0.00      13.45        0.06    38.98   0.466
  SUB-0226696599            28.89       0.00       3.09      14.71      15.18       3.51      11.10        1.31   449.41   0.384
  SUB-0226898371            28.89       0.00       2.71      17.28      12.83       1.38       8.90        0.27   128.86   0.308
  SUB-0228596460            28.89       0.00       2.84      15.61      14.29       2.39      10.44        0.44   184.37   0.361
  SUB-0229397158            28.89       0.00       2.13       0.00      26.77       0.00      26.77        0.17    92.81   0.927
  SUB-0230898598            28.89       0.00       2.14      20.90       7.41       0.00       5.85        0.18   113.41   0.203
  SUB-0231398075            28.89       0.00       2.96      15.17      13.99       0.14      10.76        1.03   376.33   0.373
  SUB-0231798102            28.89       0.00       2.47      10.60      15.83       0.00      15.83        0.41   231.80   0.548
  SUB-0232798361            28.89       0.00       2.53      15.17      14.24       0.64      11.19        0.23   117.02   0.387
  SUB-0233897177            28.89       0.00       1.82      16.28      10.80       0.00      10.79        0.27   179.66   0.374
  SUB-0234398171            28.89       0.00       2.47      15.67      13.66       1.56      10.75        0.19   105.48   0.372
  SUB-0234495781            28.89       0.00       2.47      19.09      10.16       0.10       7.33        0.33   157.97   0.254
  SUB-0234797999            28.89       0.00       2.72      19.21      10.32       0.03       6.96        0.55   236.21   0.241
  SUB-0236796666            28.89       0.00       3.08      14.63      15.19       3.59      11.18        0.54   186.13   0.387
  SUB-0237397134            28.89       0.00       1.77      16.29      10.84       0.00      10.84        0.12    83.24   0.375
  SUB-0238198188            28.89       0.00       1.83      16.29      10.77       0.00      10.77        0.08    52.92   0.373
  SUB-0239398266            28.89       0.00       1.94      16.27      10.68       0.00      10.68        0.25   129.17   0.370
  SUB-0241395762            28.89       0.00       1.97      26.92       0.00       0.00       0.00        0.00     0.05   0.000
  SUB-0241997265            28.89       0.00       2.58      14.20      14.63       0.88      12.12        0.34   194.53   0.419
  SUB-0244596774            28.89       0.00       3.32      15.62      14.99       2.46       9.95        0.78   234.21   0.344
  SUB-0244698151            28.89       0.00       1.80      16.29      10.81       0.00      10.81        0.08    57.16   0.374
  SUB-0245199187            28.89       0.00       1.84      16.29      10.77       0.00      10.77        0.18   114.40   0.373
  SUB-0245898412            28.89       0.00       3.33      17.99      12.18       0.09       7.57        2.95   824.14   0.262
  SUB-0248197071            28.89       0.00       1.75      16.29      10.86       0.00      10.86        0.06    43.59   0.376
  SUB-0248297346            28.89       0.00       1.70      25.26       1.93       0.00       1.93        0.04    29.39   0.067
  SUB-0251899332            28.89       0.00       1.86      16.87      10.17       0.00      10.17        0.19   115.41   0.352
  SUB-0252598031            28.89       0.00       2.56      13.20      14.98       5.00      13.14        0.13    58.79   0.455
  SUB-0254397425            28.89       0.00       1.83      16.06      11.00       0.00      11.00        0.11    72.22   0.381
  SUB-0256195756            28.89       0.00       2.97      16.16      14.12       1.65       9.77        0.77   301.89   0.338
  SUB-0256997898            28.89       0.00       1.78      16.29      10.83       0.00      10.83        0.02    16.66   0.375
  SUB-0256997960            28.89       0.00       1.76      16.29      10.85       0.00      10.85        0.02    16.65   0.376
  SUB-0259697956            28.89       0.00       1.80      16.29      10.81       0.00      10.81        0.35   234.26   0.374
  SUB-0266297842            28.89       0.00       1.98      16.16      10.75       0.00      10.75        0.27   133.86   0.372
  SUB-0266495757            28.89       0.00       2.27      18.48      10.35       0.01       8.15        0.49   279.38   0.282
  SUB-0268198430            28.89       0.00       1.75      24.43       2.71       0.00       2.71        0.12    85.41   0.094
  SUB-0268298982            28.89       0.00       2.29      16.12      11.86       0.00      10.48        0.57   259.69   0.363
  SUB-0268697941            28.89       0.00       1.84      16.27      10.79       0.00      10.79        0.60   372.10   0.373
  SUB-0270997893            28.89       0.00       1.77      16.17      10.96       0.00      10.96        0.04    25.30   0.379
  SUB-0271296809            28.89       0.00       2.28      16.45      12.61       0.64      10.17        0.19   124.31   0.352
  SUB-0271397909            28.89       0.00       1.78      16.29      10.83       0.00      10.83        0.03    17.50   0.375
  SUB-0273696839            28.89       0.00       2.88      14.56      14.95       3.60      11.45        0.86   337.43   0.396
  SUB-0275298418            28.89       0.00       1.89      16.29      10.72       0.00      10.72        0.85   482.63   0.371
  SUB-0276296884            28.89       0.00       2.83      17.32      12.93       0.73       8.73        3.74  1587.31   0.302
  SUB-0276896908            28.89       0.00       1.71      16.29      10.90       0.00      10.90        0.01     6.08   0.377
  SUB-0277296923            28.89       0.00       1.83      16.28      10.78       0.00      10.78        0.34   218.57   0.373
  SUB-0281297888            28.89       0.00       2.81      16.49      13.65       1.29       9.59        0.64   275.81   0.332
  SUB-0286195745            28.89       0.00       1.97      20.44       7.74       0.00       6.48        0.18   124.08   0.224
  SUB-0288197870            28.89       0.00       1.87      13.93      13.09       0.00      13.09        0.02    10.99   0.453
  SUB-0290197158            28.89       0.00       1.66      26.64       0.59       0.00       0.59        0.06    44.95   0.021
  SUB-0294297167            28.89       0.00       2.99      17.24      12.84       0.34       8.66        1.66   620.94   0.300
  SUB-0297198412            28.89       0.00       1.87      13.57      13.45       0.00      13.45        0.05    33.11   0.466
  SUB-0297397257            28.89       0.00       1.79      16.29      10.82       0.00      10.82        0.03    19.30   0.374
  SUB-0298398485            28.89       0.00       2.39      16.40      13.07       0.85      10.10        0.13    76.54   0.350
  SUB-0299398545            28.89       0.00       1.89      13.57      13.43       0.00      13.43        0.11    67.56   0.465
  SUB-0300598620            28.89       0.00       2.68      15.37      13.14       0.04      10.84        2.51  1107.55   0.375
  SUB-0305598253            28.89       0.00       2.73      13.19      15.50       0.74      12.97        0.58   306.41   0.449
  SUB-0306998338            28.89       0.00       2.98      14.54      12.40       0.00      11.38        2.03   543.16   0.394
  SUB-0307198357            28.89       0.00       2.94      16.25      13.91       1.30       9.71        1.20   491.29   0.336
  SUB-0308697797            28.89       0.00       1.92      13.57      13.40       0.00      13.40        0.07    41.06   0.464
  SUB-0308797375            28.89       0.00       2.59      14.70      13.93       0.14      11.60        0.32   168.14   0.402
  SUB-0310597632            28.89       0.00       2.20      17.83       8.86       0.00       8.86        0.28   153.43   0.307
  SUB-0312297670            28.89       0.00       2.35      20.41       7.84       0.00       6.13        1.37   580.89   0.212
  SUB-0314295977            28.89       0.00       2.59      18.16      10.89       0.02       8.14        4.12  1695.90   0.282
  SUB-0314397614            28.89       0.00       1.86      16.10      10.94       0.00      10.94        0.11    65.43   0.379
  SUB-0315797333            28.89       0.00       2.43      17.35      11.20       0.00       9.11        0.20   114.01   0.315
  SUB-0316497756            28.89       0.00       2.59      16.46      13.20       0.65       9.84        0.24   121.36   0.340
  SUB-0318197681            28.89       0.00       2.10      15.24      13.35       0.30      11.55        0.03    20.52   0.400
  SUB-0321597728            28.89       0.00       2.57      16.08      12.93       3.35      10.25        0.01     6.84   0.355
  SUB-0322097748            28.89       0.00       2.55      15.98      12.93       3.62      10.37        0.01     6.95   0.359
  SUB-0322498133            28.89       0.00       2.37      13.22      13.33       0.00      13.30        0.32   163.60   0.460
  SUB-0324597779            28.89       0.00       1.79      16.14      10.97       0.00      10.97        0.03    18.58   0.380
  SUB-0325597798            28.89       0.00       2.69      16.98      12.84       2.37       9.23        0.06    28.05   0.319
  SUB-0328497780            28.89       0.00       2.73      15.81      13.64       0.71      10.35        0.59   291.46   0.358
  SUB-0329595616            28.89       0.00       2.48      18.98      10.81       0.20       7.43        0.69   364.22   0.257
  SUB-0332897224            28.89       0.00       2.59      14.66      13.98       0.12      11.64        0.33   163.15   0.403
  SUB-0335598153            28.89       0.00       2.57      18.35      11.78       0.61       7.97        0.17    87.00   0.276
  SUB-0336595575            28.89       0.00       2.79      18.14      12.31       0.94       7.96        0.60   262.74   0.276
  SUB-0338297900            28.89       0.00       1.96      16.29      10.64       0.00      10.64        0.67   334.80   0.368
  SUB-0340598195            28.89       0.00       2.76      15.17      12.64       0.00      10.96        2.18   810.83   0.379
  SUB-0341297171            28.89       0.00       2.75      16.32      13.21       2.52       9.83        0.32   149.61   0.340
  SUB-0344295665            28.89       0.00       2.82      17.90      11.68       0.09       8.16        1.42   543.62   0.283
  SUB-0347897129            28.89       0.00       2.67      17.21      11.00       0.00       9.01        0.98   332.43   0.312
  SUB-0348295726            28.89       0.00       1.72      23.59       3.59       0.00       3.58        0.18   124.55   0.124
  SUB-0349295494            28.89       0.00       2.78      18.03      12.36       1.11       8.08        0.40   177.72   0.280
  SUB-0349297842            28.89       0.00       2.05      15.31      11.75       0.00      11.53        0.21   100.57   0.399
  SUB-0349695749            28.89       0.00       2.64      18.28      11.04       0.04       7.97        2.32   930.17   0.276
  SUB-0350598096            28.89       0.00       1.99      15.83      11.07       0.00      11.07        0.38   183.61   0.383
  SUB-0353497907            28.89       0.00       1.92      15.85      11.13       0.00      11.13        0.37   201.49   0.385
  SUB-0357197070            28.89       0.00       1.85      13.57      13.47       0.00      13.47        0.06    39.23   0.466
  SUB-0357695439            28.89       0.00       2.80      18.16      12.29       0.89       7.93        0.27   119.67   0.274
  SUB-0366095385            28.89       0.00       1.83      16.35      10.85       0.00      10.71        0.07    45.32   0.371
  SUB-0366597010            28.89       0.00       2.93      17.31      12.45       0.18       8.65        1.37   518.97   0.300
  SUB-0374298397            28.89       0.00       2.48      15.58      12.72       0.01      10.84        0.47   218.26   0.375
  SUB-0375495324            28.89       0.00       2.70      17.44      12.56       1.94       8.75        0.51   238.56   0.303
  SUB-0382598324            28.89       0.00       2.83      15.50      14.31       2.35      10.57        0.15    65.71   0.366
  SUB-0382895276            28.89       0.00       1.76      16.29      10.85       0.00      10.85        0.06    43.71   0.376
  SUB-0386496876            28.89       0.00       2.75      16.64      13.00       0.40       9.50        2.69  1229.78   0.329
  SUB-0387197692            28.89       0.00       2.06      16.37      10.74       0.00      10.46        0.29   140.56   0.362
  SUB-0389998277            28.89       0.00       2.82      16.03      13.78       0.82      10.05        0.57   253.99   0.348
  SUB-0391295222            28.89       0.00       1.80      16.29      10.81       0.00      10.81        0.08    52.00   0.374
  SUB-0402298199            28.89       0.00       3.08      17.44      11.58       0.01       8.37        3.80  1110.04   0.290
  SUB-0403095147            28.89       0.00       3.01      18.49      12.41       0.87       7.39        1.36   511.28   0.256
  SUB-0403096770            28.89       0.00       2.74      18.30      11.06       0.41       7.85        1.04   523.36   0.272
  SUB-0405595143            28.89       0.00       2.65      15.72      13.70       0.90      10.52        0.52   271.66   0.364
  SUB-0410395161            28.89       0.00       1.86      16.29      10.75       0.00      10.75        0.07    41.62   0.372
  SUB-0410696720            28.89       0.00       2.66      18.14      11.60       0.52       8.09        1.73   843.82   0.280
  SUB-0411398140            28.89       0.00       2.20      14.60      12.09       0.00      12.09        0.27   102.40   0.419
  SUB-0412888452            28.89       0.00       2.09      17.40      11.00       0.00       9.40        0.25   157.17   0.326
  SUB-0413195143            28.89       0.00       2.89      18.00      11.00       0.01       8.00        1.96   628.95   0.277
  SUB-0414595073            28.89       0.00       3.26      18.10      10.81       0.00       7.53        3.24   768.20   0.261
  SUB-0415688079            28.89       0.00       1.87      16.29      10.73       0.00      10.73        0.47   274.33   0.371
  SUB-0416996680            28.89       0.00       2.58      17.18      11.35       0.00       9.14        0.54   195.04   0.316
  SUB-0419796662            28.89       0.00       2.83      16.20      13.44       0.31       9.86        2.51  1039.70   0.341
  SUB-0420197480            28.89       0.00       3.01      18.29      12.46       0.78       7.59        2.79  1065.07   0.263
  SUB-0423588423            28.89       0.00       1.96      16.28      10.65       0.00      10.65        1.10   550.88   0.368
  SUB-0425996758            28.89       0.00       2.12      16.11      10.68       0.00      10.66        0.35   145.85   0.369
  SUB-0428388317            28.89       0.00       1.77      16.29      10.84       0.00      10.84        0.06    44.49   0.375
  SUB-0431197410            28.89       0.00       1.99      16.28      10.63       0.00      10.62        0.21   102.80   0.368
  SUB-0433596710            28.89       0.00       2.60      15.78      13.51       0.54      10.52        0.36   192.37   0.364
  SUB-0436587866            28.89       0.00       2.04      20.69       7.74       0.00       6.16        0.15    96.47   0.213
  SUB-0440388008            28.89       0.00       2.45      18.23      10.84       0.03       8.21        1.16   551.67   0.284
  SUB-0443987846            28.89       0.00       2.42      18.60      11.09       0.61       7.87        0.68   399.02   0.272
  SUB-0444787498            28.89       0.00       2.53      18.62      10.84       0.08       7.74        1.81   840.55   0.268
  SUB-0445896630            28.89       0.00       2.37      15.98      13.12       0.28      10.54        0.17    94.59   0.365
  SUB-0448988262            28.89       0.00       2.63      14.41      14.42       0.33      11.85        0.73   382.08   0.410
  SUB-0449895767            28.89       0.00       2.29      16.95      11.89       0.05       9.66        1.11   630.73   0.334
  SUB-0449895786            28.89       0.00       2.56      15.29      13.91       1.59      11.05        0.96   519.87   0.382
  SUB-0450387708            28.89       0.00       2.46      18.81      10.97       0.69       7.63        0.35   203.76   0.264
  SUB-0451996591            28.89       0.00       2.91      18.13      11.94       0.41       7.85        2.82  1114.11   0.272
  SUB-0453288069            28.89       0.00       2.00      13.58      13.32       0.00      13.32        0.23   118.67   0.461
  SUB-0454095759            28.89       0.00       1.81      16.29      10.80       0.00      10.80        0.15   102.09   0.374
  SUB-0456797401            28.89       0.00       2.39      14.32      13.72       0.03      12.18        0.19   131.98   0.422
  SUB-0459897831            28.89       0.00       2.77      15.83      13.25       0.13      10.30        1.06   458.11   0.356
  SUB-0461096533            28.89       0.00       2.47      15.57      13.49       0.31      10.85        0.68   373.10   0.376
  SUB-0463697509            28.89       0.00       2.67      12.41      15.47       0.21      13.82        0.23   145.55   0.478
  SUB-0468788209            28.89       0.00       3.00      15.35      14.26       1.01      10.54        1.08   469.25   0.365
  SUB-0470597617            28.89       0.00       2.70      13.88      14.65       0.87      12.32        0.20   119.62   0.426
  SUB-0473887116            28.89       0.00       2.39      17.45      11.68       0.16       9.05        0.46   264.86   0.313
  SUB-0474495608            28.89       0.00       2.28      17.43      11.83       0.26       9.19        1.07   674.95   0.318
  SUB-0476597725            28.89       0.00       2.22      14.26      12.44       0.00      12.41        0.23   120.15   0.430
  SUB-0477198456            28.89       0.00       2.78      17.30      12.01       0.05       8.81        3.03  1127.42   0.305
  SUB-0478388123            28.89       0.00       2.55      18.35      11.15       0.09       8.00        0.89   410.44   0.277
  SUB-0478697744            28.89       0.00       1.80      25.24       1.93       0.00       1.85        0.16   105.56   0.064
  SUB-0482287093            28.89       0.00       2.37      17.79      11.53       0.13       8.74        0.41   224.13   0.302
  SUB-0482696281            28.89       0.00       2.56      15.30      13.82       0.41      11.04        0.69   364.53   0.382
  SUB-0483488315            28.89       0.00       1.67      26.35       0.87       0.00       0.87        0.05    36.64   0.030
  SUB-0483989585            28.89       0.00       1.94      25.22       2.61       0.00       1.73        0.46   301.21   0.060
  SUB-0484297676            28.89       0.00       3.15      16.18      13.81       0.29       9.56        3.06   966.49   0.331
  SUB-0484698408            28.89       0.00       2.78      17.30      11.99       0.06       8.81        0.82   335.12   0.305
  SUB-0485196265            28.89       0.00       1.95      16.59      10.35       0.00      10.35        0.17    88.21   0.358
  SUB-0485988408            28.89       0.00       2.37      18.16      11.13       0.11       8.36        0.24   130.09   0.290
  SUB-0486196372            28.89       0.00       1.97      15.62      11.33       0.00      11.30        0.24   126.87   0.391
  SUB-0487489323            28.89       0.00       2.50      18.51      11.18       0.21       7.88        0.69   353.80   0.273
  SUB-0487796249            28.89       0.00       2.71      16.19      13.62       0.82       9.99        0.35   164.88   0.346
  SUB-0487888479            28.89       0.00       2.47      17.83      11.16       0.04       8.60        0.82   407.88   0.298
  SUB-0490898671            28.89       0.00       2.60      16.65      12.45       0.06       9.64        1.62   696.67   0.334
  SUB-0491189435            28.89       0.00       2.43      18.84      10.91       0.86       7.62        0.16    92.76   0.264
  SUB-0491195499            28.89       0.00       1.75      16.29      10.86       0.00      10.86        0.09    66.78   0.376
  SUB-0493087963            28.89       0.00       2.44      17.98      11.44       0.18       8.47        0.45   244.77   0.293
  SUB-0493896210            28.89       0.00       2.37      21.64       6.91       0.05       4.88        0.27   166.93   0.169
  SUB-0494489300            28.89       0.00       2.38      14.63      14.09       0.92      11.89        0.08    49.59   0.411
  SUB-0494989549            28.89       0.00       2.25      19.73       8.71       0.00       6.90        0.62   292.15   0.239
  SUB-0495696932            28.89       0.00       1.86      16.29      10.74       0.00      10.74        0.10    57.79   0.372
  SUB-0496298334            28.89       0.00       1.82      16.32      10.75       0.00      10.75        0.05    29.75   0.372
  SUB-0499195448            28.89       0.00       2.55      16.00      13.43       0.91      10.34        0.98   527.00   0.358
  SUB-0499597916            28.89       0.00       2.86      14.53      14.89       3.60      11.51        0.67   267.73   0.398
  SUB-0499996171            28.89       0.00       2.59      17.23      12.05       0.12       9.07        1.81   853.91   0.314
  SUB-0500587044            28.89       0.00       2.28      17.43      11.77       0.19       9.19        0.20   121.30   0.318
  SUB-0500588594            28.89       0.00       2.58      19.18      10.84       0.32       7.14        0.40   199.95   0.247
  SUB-0500898305            28.89       0.00       2.56      17.72      11.61       0.09       8.61        1.25   614.30   0.298
  SUB-0502389274            28.89       0.00       2.63      19.11      10.86       0.21       7.16        1.48   695.86   0.248
  SUB-0505088729            28.89       0.00       2.59      18.40      11.23       0.11       7.91        1.08   482.55   0.274
  SUB-0505287587            28.89       0.00       2.59      15.69      13.62       0.57      10.61        0.60   313.57   0.367
  SUB-0506796128            28.89       0.00       2.72      14.86      13.89       0.15      11.31        0.64   305.17   0.392
  SUB-0508095391            28.89       0.00       2.58      17.95      11.18       0.03       8.36        1.60   675.09   0.289
  SUB-0508398054            28.89       0.00       3.01      16.25      14.00       0.78       9.63        2.40   888.91   0.333
  SUB-0511398238            28.89       0.00       2.98      15.81      13.84       0.59      10.10        0.95   402.26   0.350
  SUB-0511587824            28.89       0.00       2.42      17.79      11.32       0.07       8.68        0.52   304.39   0.300
  SUB-0511789243            28.89       0.00       1.84      13.57      13.48       0.00      13.48        0.06    40.30   0.467
  SUB-0511996828            28.89       0.00       1.81      16.26      10.82       0.00      10.82        0.13    85.36   0.375
  SUB-0512295363            28.89       0.00       1.74      16.29      10.87       0.00      10.87        0.05    36.10   0.376
  SUB-0512596092            28.89       0.00       1.99      24.39       2.59       0.00       2.51        0.13    92.48   0.087
  SUB-0513787907            28.89       0.00       1.97      13.57      13.35       0.00      13.35        0.14    75.90   0.462
  SUB-0513796865            28.89       0.00       2.58      15.64      13.87       1.69      10.67        0.27   139.46   0.369
  SUB-0514398148            28.89       0.00       2.00      16.93       9.96       0.00       9.96        0.12    58.58   0.345
  SUB-0514698217            28.89       0.00       2.06      16.26      10.61       0.00      10.57        0.36   161.06   0.366
  SUB-0516087255            28.89       0.00       2.47      18.59      11.15       0.31       7.83        0.57   306.95   0.271
  SUB-0518296055            28.89       0.00       2.47      18.31      10.35       0.00       8.11        0.56   230.58   0.281
  SUB-0518887361            28.89       0.00       2.56      19.04      10.68       0.10       7.30        1.05   493.96   0.253
  SUB-0518988421            28.89       0.00       2.43      19.03      10.53       0.15       7.43        0.38   209.23   0.257
  SUB-0520487800            28.89       0.00       2.28      17.37      11.77       0.25       9.24        0.14    88.95   0.320
  SUB-0520887433            28.89       0.00       2.30      17.50      11.70       0.26       9.09        0.14    85.23   0.315
  SUB-0521089212            28.89       0.00       2.65      19.36      10.74       0.26       6.89        0.76   358.53   0.238
  SUB-0521288839            28.89       0.00       2.54      17.41      12.02       0.21       8.94        1.01   547.38   0.310
  SUB-0522996129            28.89       0.00       2.48      17.65      11.68       0.16       8.77        1.58   847.69   0.304
  SUB-0523095294            28.89       0.00       2.55      18.30      10.75       0.01       8.04        2.70  1143.54   0.278
  SUB-0523587538            28.89       0.00       2.50      18.83      11.03       0.35       7.57        0.30   158.77   0.262
  SUB-0524595388            28.89       0.00       2.67      14.96      14.28       1.98      11.27        0.69   350.75   0.390
  SUB-0525596970            28.89       0.00       2.71      16.83      12.75       0.17       9.35        0.97   399.02   0.324
  SUB-0526398337            28.89       0.00       2.76      14.48      14.78       3.37      11.66        0.66   288.81   0.404
  SUB-0527088404            28.89       0.00       2.50      18.11      10.72       0.01       8.28        2.05   857.04   0.287
  SUB-0527896727            28.89       0.00       1.82      16.29      10.78       0.00      10.78        0.03    20.48   0.373
  SUB-0534387763            28.89       0.00       2.48      19.74       9.99       0.11       6.68        0.56   295.81   0.231
  SUB-0536395199            28.89       0.00       1.76      16.29      10.85       0.00      10.85        0.13    93.45   0.375
  SUB-0539096702            28.89       0.00       2.71      15.77      14.03       1.49      10.41        0.33   155.25   0.360
  SUB-0539988777            28.89       0.00       2.50      18.87      10.98       0.48       7.52        0.24   133.56   0.260
  SUB-0541998582            28.89       0.00       2.52      15.83      13.63       1.37      10.55        0.19   102.56   0.365
  SUB-0542996630            28.89       0.00       2.87      16.32      13.77       0.62       9.70        1.26   499.61   0.336
  SUB-0543387739            28.89       0.00       1.92      13.58      13.40       0.00      13.39        0.08    45.27   0.464
  SUB-0543598322            28.89       0.00       2.79      15.85      13.95       0.53      10.25        3.06  1280.80   0.355
  SUB-0543794337            28.89       0.00       1.75      16.28      10.87       0.00      10.87        0.06    47.38   0.376
  SUB-0544694044            28.89       0.00       2.37      18.83      10.37       0.05       7.69        0.97   509.29   0.266
  SUB-0546193745            28.89       0.00       2.52      18.82      10.94       0.23       7.55        0.61   314.36   0.261
  SUB-0546193772            28.89       0.00       1.85      16.26      10.82       0.00      10.78        0.11    70.45   0.373
  SUB-0546288756            28.89       0.00       2.52      18.69      11.09       0.24       7.69        1.03   526.26   0.266
  SUB-0546394513            28.89       0.00       2.28      17.84      11.26       0.13       8.78        0.24   147.99   0.304
  SUB-0546893576            28.89       0.00       2.44      18.55      10.78       0.06       7.90        1.28   641.45   0.273
  SUB-0546894085            28.89       0.00       1.93      16.34      10.83       0.00      10.62        0.29   164.77   0.368
  SUB-0547295361            28.89       0.00       2.63      17.51      11.66       0.05       8.75        1.39   578.64   0.303
  SUB-0547393476            28.89       0.00       2.23      17.64      10.97       0.01       9.03        0.56   321.99   0.312
  SUB-0547994256            28.89       0.00       2.16      17.73      10.91       0.02       9.00        0.21   133.75   0.312
  SUB-0548189022            28.89       0.00       2.56      18.28      11.24       0.10       8.06        0.65   301.17   0.279
  SUB-0549787722            28.89       0.00       2.41      18.61      10.81       0.11       7.87        0.62   333.80   0.272
  SUB-0550497704            28.89       0.00       3.05      15.78      14.46       1.12      10.07        2.36   863.70   0.348
  SUB-0551089113            28.89       0.00       2.46      19.10      10.69       0.24       7.33        0.20   106.26   0.254
  SUB-0551695109            28.89       0.00       2.38      10.48      16.03       0.00      16.03        0.06    41.96   0.555
  SUB-0553696609            28.89       0.00       2.70      14.69      14.56       3.06      11.51        0.43   197.07   0.398
  SUB-0553798766            28.89       0.00       2.53      15.96      13.54       1.33      10.40        0.25   130.62   0.360
  SUB-0556094466            28.89       0.00       2.54      19.16      10.83       0.50       7.19        0.18    96.36   0.249
  SUB-0558298901            28.89       0.00       3.33      16.44      14.17       0.68       9.12        2.55   756.12   0.316
  SUB-0559088714            28.89       0.00       2.34      18.63      10.38       0.03       7.92        0.41   244.16   0.274
  SUB-0559089352            28.89       0.00       2.47      18.75      10.84       0.20       7.68        0.39   206.54   0.266
  SUB-0561087692            28.89       0.00       2.83      18.18      10.71       0.00       7.88        3.74  1163.23   0.273
  SUB-0562097630            28.89       0.00       2.43      16.74      12.61       0.35       9.72        0.29   158.60   0.336
  SUB-0562196555            28.89       0.00       1.93      14.52      12.47       0.00      12.45        0.09    49.66   0.431
  SUB-0562894868            28.89       0.00       2.23      18.09      11.01       0.13       8.57        0.15    96.56   0.297
  SUB-0563294420            28.89       0.00       2.44      18.25      11.32       0.28       8.21        0.20   108.87   0.284
  SUB-0563595033            28.89       0.00       1.76      16.29      10.85       0.00      10.85        0.10    73.42   0.375
  SUB-0564595048            28.89       0.00       2.82      13.65      15.30       3.54      12.43        1.03   457.19   0.430
  SUB-0566194976            28.89       0.00       1.96       0.00      26.94       0.00      26.94        0.18   116.66   0.932
  SUB-0566589201            28.89       0.00       2.47      18.72      10.56       0.03       7.70        0.81   386.11   0.267
  SUB-0567794938            28.89       0.00       1.82      16.29      10.82       0.00      10.79        0.17   116.87   0.373
  SUB-0569889302            28.89       0.00       2.49      18.29      11.29       0.17       8.11        1.22   623.06   0.281
  SUB-0570293166            28.89       0.00       2.27      17.99      10.99       0.05       8.64        0.25   145.89   0.299
  SUB-0570489603            28.89       0.00       2.01      16.29      10.60       0.00      10.60        0.51   236.99   0.367
  SUB-0571094984            28.89       0.00       1.75      16.29      10.86       0.00      10.86        0.08    54.70   0.376
  SUB-0571194368            28.89       0.00       2.53      18.35      10.99       0.06       8.01        2.00   937.42   0.277
  SUB-0571595074            28.89       0.00       2.62      18.31      10.96       0.07       7.96        3.04  1316.80   0.276
  SUB-0572888668            28.89       0.00       1.78      13.57      13.54       0.00      13.54        0.03    19.57   0.469
  SUB-0573997737            28.89       0.00       2.94      16.79      13.01       0.21       9.16        4.74  1685.78   0.317
  SUB-0574797549            28.89       0.00       2.55      16.24      13.34       0.79      10.11        0.46   241.01   0.350
  SUB-0574997377            28.89       0.00       2.85      15.65      14.36       1.04      10.39        1.11   453.92   0.360
  SUB-0576394449            28.89       0.00       2.49      18.41      11.02       0.10       7.99        0.46   229.33   0.276
  SUB-0577788652            28.89       0.00       2.61      18.61      11.04       0.10       7.68        1.03   452.42   0.266
  SUB-0577997799            28.89       0.00       2.71      16.36      13.26       0.26       9.82        1.64   695.39   0.340
  SUB-0578699027            28.89       0.00       2.50      15.43      13.83       1.88      10.97        0.13    69.48   0.380
  SUB-0579195113            28.89       0.00       2.56      17.47      11.66       0.05       8.86        2.06   923.88   0.307
  SUB-0579296446            28.89       0.00       2.78      15.02      13.44       0.01      11.09        0.88   311.32   0.384
  SUB-0582494544            28.89       0.00       2.45      18.74      11.00       0.69       7.71        0.09    51.41   0.267
  SUB-0590198979            28.89       0.00       3.01      15.63      14.47       1.48      10.25        0.68   264.00   0.355
  SUB-0590593035            28.89       0.00       2.66      18.01      11.53       0.13       8.22        2.14   960.25   0.285
  SUB-0590894490            28.89       0.00       2.49      18.94      10.87       0.26       7.47        0.59   312.07   0.258
  SUB-0592294849            28.89       0.00       1.76      16.29      10.85       0.00      10.85        0.09    62.57   0.376
  SUB-0593398966            28.89       0.00       2.62      15.52      14.11       1.27      10.75        0.27   131.49   0.372
  SUB-0596394758            28.89       0.00       2.12      17.38      10.86       0.00       9.39        0.76   440.63   0.325
  SUB-0598096326            28.89       0.00       2.96      17.42      12.96       1.10       8.51        1.60   659.69   0.294
  SUB-0599397392            28.89       0.00       2.65      15.52      14.01       2.20      10.72        0.44   211.37   0.371
  SUB-0601695474            28.89       0.00       1.78      18.75       8.39       0.00       8.36        0.06    41.89   0.289
  SUB-0603098926            28.89       0.00       2.57      15.25      14.23       1.06      11.07        0.29   145.89   0.383
  SUB-0604695519            28.89       0.00       2.50      18.01      10.91       0.02       8.39        0.73   324.51   0.290
  SUB-0605092942            28.89       0.00       1.99      15.07      11.85       0.00      11.84        0.24   118.68   0.410
  SUB-0605594394            28.89       0.00       2.52      18.83      10.74       0.09       7.55        0.86   404.93   0.261
  SUB-0606389576            28.89       0.00       1.96      16.24      10.69       0.00      10.69        0.72   358.38   0.370
  SUB-0606496273            28.89       0.00       2.67      14.76      14.53       1.42      11.46        0.49   248.32   0.397
  SUB-0607397171            28.89       0.00       3.30      16.25      14.10       0.47       9.34        3.73  1109.17   0.323
  SUB-0612398887            28.89       0.00       2.64      15.74      13.91       1.17      10.51        0.14    67.17   0.364
  SUB-0612997351            28.89       0.00       1.86      16.03      11.09       0.00      11.01        0.20   124.51   0.381
  SUB-0616288507            28.89       0.00       1.95      25.88       1.06       0.00       1.06        0.03    25.73   0.037
  SUB-0619695768            28.89       0.00       1.91      16.29      10.70       0.00      10.69        0.13    71.54   0.370
  SUB-0623098843            28.89       0.00       2.97      15.85      14.39       1.27      10.07        0.88   335.26   0.349
  SUB-0624195833            28.89       0.00       1.89      16.36      10.64       0.00      10.64        0.20   119.26   0.368
  SUB-0625296156            28.89       0.00       2.25      16.26      10.87       0.00      10.39        0.63   236.51   0.359
  SUB-0625394792            28.89       0.00       2.38      17.26      11.98       0.21       9.25        0.78   450.42   0.320
  SUB-0626294807            28.89       0.00       2.53      17.84      11.57       0.14       8.53        1.89   938.81   0.295
  SUB-0626993018            28.89       0.00       2.43      18.59      11.08       0.69       7.88        0.19   114.15   0.273
  SUB-0629395811            28.89       0.00       2.28      21.40       7.27       0.01       5.20        0.41   224.10   0.180
  SUB-0629993066            28.89       0.00       2.41      19.49      10.27       0.48       6.99        0.19   113.36   0.242
  SUB-0630798811            28.89       0.00       1.97      16.28      10.65       0.00      10.64        0.26   127.65   0.368
  SUB-0632793331            28.89       0.00       1.88      14.76      12.26       0.00      12.25        0.10    60.51   0.424
  SUB-0633696103            28.89       0.00       1.83      16.29      10.78       0.00      10.78        0.16   102.38   0.373
  SUB-0633896580            28.89       0.00       2.43      19.14      10.40       0.14       7.32        0.21   115.23   0.253
  SUB-0633898798            28.89       0.00       2.46      17.06      11.87       0.03       9.38        0.43   200.69   0.325
  SUB-0634096680            28.89       0.00       1.95      16.33      10.68       0.00      10.61        0.14    78.70   0.367
  SUB-0638097244            28.89       0.00       2.21      16.34      10.35       0.00      10.35        0.97   325.00   0.358
  SUB-0638596070            28.89       0.00       1.86      22.78       5.01       0.00       4.25        0.34   214.48   0.147
  SUB-0638598642            28.89       0.00       2.88      16.67      13.00       0.16       9.34        1.40   507.42   0.323
  SUB-0639293006            28.89       0.00       2.51      19.22      10.51       0.18       7.17        0.27   139.49   0.248
  SUB-0639596667            28.89       0.00       2.51      18.85      10.80       0.14       7.53        0.95   470.68   0.261
  SUB-0640497180            28.89       0.00       1.80      16.18      10.91       0.00      10.91        0.07    45.55   0.378
  SUB-0641188111            28.89       0.00       2.00      18.50       8.52       0.00       8.39        2.71  1198.34   0.290
  SUB-0641598636            28.89       0.00       3.13      15.93      14.40       0.90       9.84        2.11   727.08   0.341
  SUB-0641896264            28.89       0.00       2.61      18.87      10.94       0.14       7.41        1.46   673.82   0.257
  SUB-0644994445            28.89       0.00       2.26      19.63       9.10       0.00       7.00        2.30  1237.27   0.242
  SUB-0645295714            28.89       0.00       2.42      18.71      10.72       0.12       7.77        0.71   400.28   0.269
  SUB-0645497146            28.89       0.00       1.83      16.29      10.77       0.00      10.77        0.11    67.86   0.373
  SUB-0645793289            28.89       0.00       2.11      16.75      10.74       0.00      10.03        0.40   198.95   0.347
  SUB-0646488304            28.89       0.00       1.87      21.32       6.17       0.00       5.71        0.53   343.69   0.198
  SUB-0647996613            28.89       0.00       1.99      13.58      13.34       0.00      13.33        0.11    58.55   0.461
  SUB-0649197442            28.89       0.00       1.90      16.25      10.75       0.00      10.75        0.07    36.73   0.372
  SUB-0649692939            28.89       0.00       2.38      18.14      11.17       0.15       8.37        1.33   754.56   0.290
  SUB-0654493013            28.89       0.00       2.49      18.81      10.71       0.10       7.59        1.76   882.27   0.263
  SUB-0657997413            28.89       0.00       2.60      20.88       8.54       0.00       5.41        1.23   482.95   0.187
  SUB-0658598695            28.89       0.00       2.82      15.75      14.18       1.72      10.33        1.22   530.53   0.357
  SUB-0660493291            28.89       0.00       2.58      19.60      10.62       0.52       6.71        0.35   181.44   0.232
  SUB-0661386834            28.89       0.00       2.10      22.50       5.83       0.00       4.29        1.17   684.64   0.148
  SUB-0661988558            28.89       0.00       1.80      16.29      10.81       0.00      10.81        0.27   181.00   0.374
  SUB-0663797375            28.89       0.00       2.73      16.97      12.31       0.05       9.20        0.47   182.44   0.318
  SUB-0664389843            28.89       0.00       2.03      22.03       5.48       0.00       4.84        0.09    61.33   0.167
  SUB-0664391770            28.89       0.00       1.78      24.49       2.69       0.00       2.62        0.78   498.99   0.091
  SUB-0665893374            28.89       0.00       2.51      19.03      10.71       0.16       7.35        0.95   475.86   0.254
  SUB-0667395878            28.89       0.00       2.90      18.56      10.60       0.01       7.43        2.56   786.57   0.257
  SUB-0668594356            28.89       0.00       1.78      16.37      10.84       0.00      10.75        0.14   104.73   0.372
  SUB-0668897789            28.89       0.00       2.53      16.59      12.88       1.04       9.78        0.23   130.11   0.339
  SUB-0669294348            28.89       0.00       1.98      16.30      10.61       0.00      10.61        2.19  1061.09   0.367
  SUB-0670288090            28.89       0.00       2.44      18.61      11.11       0.53       7.85        0.31   181.96   0.272
  SUB-0670798644            28.89       0.00       2.87      16.54      13.49       0.62       9.49        0.95   391.07   0.328
  SUB-0671188779            28.89       0.00       1.82      16.29      10.79       0.00      10.79        0.31   200.53   0.374
  SUB-0671788306            28.89       0.00       1.87      13.58      13.45       0.00      13.45        0.04    26.13   0.465
  SUB-0673187965            28.89       0.00       2.07      18.46       9.83       0.00       8.37        0.37   226.96   0.290
  SUB-0673287340            28.89       0.00       2.71      18.38      11.12       0.07       7.81        3.28  1325.83   0.270
  SUB-0673690064            28.89       0.00       1.97      24.33       2.60       0.00       2.60        0.03    22.11   0.090
  SUB-0674497873            28.89       0.00       2.32      16.69      12.28       0.13       9.88        0.25   149.22   0.342
  SUB-0674995378            28.89       0.00       2.47      18.16      11.38       0.35       8.27        0.27   153.56   0.286
  SUB-0675888529            28.89       0.00       2.16      21.73       7.52       0.00       5.00        0.34   223.70   0.173
  SUB-0678597241            28.89       0.00       2.60      17.51      12.30       0.41       8.78        0.76   384.26   0.304
  SUB-0680389001            28.89       0.00       1.83      16.32      10.74       0.00      10.74        0.35   222.30   0.372
  SUB-0680595252            28.89       0.00       2.42      18.35      11.06       0.13       8.13        0.75   406.66   0.281
  SUB-0680886436            28.89       0.00       2.69      17.18      12.85       0.79       9.02        0.46   217.65   0.312
  SUB-0682188359            28.89       0.00       2.43      18.76      10.95       0.84       7.70        0.14    79.73   0.267
  SUB-0682195490            28.89       0.00       1.94      24.92       2.03       0.00       2.03        0.08    56.30   0.070
  SUB-0683788790            28.89       0.00       2.19      22.54       6.97       0.02       4.17        0.21   143.76   0.144
  SUB-0684993343            28.89       0.00       2.86      18.35      11.24       0.06       7.69        3.41  1278.51   0.266
  SUB-0685495221            28.89       0.00       2.57      17.70      11.67       0.10       8.63        2.22  1038.08   0.299
  SUB-0686087997            28.89       0.00       2.40      18.55      11.12       0.64       7.94        0.33   195.60   0.275
  SUB-0687386275            28.89       0.00       2.03      16.29      10.58       0.00      10.58        5.44  2427.30   0.366
  SUB-0687694500            28.89       0.00       2.64      16.26      13.37       1.97       9.99        0.76   375.13   0.346
  SUB-0691286604            28.89       0.00       2.66      17.05      12.65       0.38       9.18        1.19   565.63   0.318
  SUB-0691388751            28.89       0.00       2.37      19.81      10.00       0.40       6.72        0.16    97.23   0.233
  SUB-0691395272            28.89       0.00       2.12      21.04       7.22       0.01       5.73        0.27   177.72   0.198
  SUB-0691397060            28.89       0.00       2.80      18.02      11.80       0.13       8.07        2.61  1065.29   0.279
  SUB-0692397964            28.89       0.00       2.59      16.65      11.88       0.00       9.66        1.02   384.76   0.334
  SUB-0693187630            28.89       0.00       2.59      17.13      12.62       0.53       9.18        0.96   484.09   0.318
  SUB-0693488304            28.89       0.00       2.42      18.78      10.83       0.31       7.69        0.15    90.35   0.266
  SUB-0694198036            28.89       0.00       2.73      16.34      13.37       0.48       9.82        0.78   350.63   0.340
  SUB-0694494572            28.89       0.00       3.34      17.24      13.76       0.97       8.31        2.71   829.11   0.288
  SUB-0695388729            28.89       0.00       2.38      18.87      10.74       0.25       7.63        0.57   333.18   0.264
  SUB-0696889333            28.89       0.00       1.85      16.29      10.76       0.00      10.76        1.29   791.27   0.372
  SUB-0697689025            28.89       0.00       2.23      22.45       7.02       0.01       4.22        0.32   212.58   0.146
  SUB-0698187704            28.89       0.00       2.43      20.26       9.42       0.04       6.21        1.54   796.09   0.215
  SUB-0699488278            28.89       0.00       2.27      18.75       9.94       0.00       7.87        0.38   217.30   0.272
  SUB-0700288824            28.89       0.00       2.41      18.67      10.95       0.36       7.81        0.59   346.98   0.270
  SUB-0700593338            28.89       0.00       2.39      19.51       9.92       0.09       7.00        0.31   171.32   0.242
  SUB-0700788914            28.89       0.00       2.38      18.36      11.11       0.94       8.15        0.15    90.89   0.282
  SUB-0701787903            28.89       0.00       2.46      18.72      10.73       0.11       7.71        0.40   208.67   0.267
  SUB-0702086218            28.89       0.00       2.01      23.55       5.10       0.00       3.34        0.21   141.67   0.115
  SUB-0704595187            28.89       0.00       2.22      20.64       8.10       0.06       6.03        0.32   207.14   0.209
  SUB-0706287866            28.89       0.00       2.49      19.88       9.70       0.04       6.52        1.80   852.26   0.226
  SUB-0709286206            28.89       0.00       2.25      20.91       8.60       0.02       5.74        1.24   745.98   0.199
  SUB-0712987736            28.89       0.00       2.35      19.29       9.84       0.01       7.25        0.48   248.81   0.251
  SUB-0713396918            28.89       0.00       2.82      18.11      11.49       0.06       7.96        0.70   249.81   0.276
  SUB-0715697900            28.89       0.00       2.81      15.46      14.37       1.38      10.62        0.74   326.44   0.368
  SUB-0716495111            28.89       0.00       2.08      18.57       9.13       0.00       8.24        1.19   650.42   0.285
  SUB-0716790453            28.89       0.00       2.24      23.93       4.32       0.05       2.72        0.12    78.03   0.094
  SUB-0716889265            28.89       0.00       2.02      23.05       5.55       0.00       3.82        0.30   207.55   0.132
  SUB-0716892249            28.89       0.00       1.93      16.29      10.68       0.00      10.68        3.00  1598.20   0.370
  SUB-0719588361            28.89       0.00       2.40      19.19      10.54       0.72       7.30        0.12    72.98   0.253
  SUB-0719998132            28.89       0.00       3.11      16.37      14.10       0.90       9.41        1.06   366.84   0.326
  SUB-0721391156            28.89       0.00       2.68      18.60      11.25       0.11       7.62        1.40   596.08   0.264
  SUB-0721798413            28.89       0.00       1.92      18.45       8.62       0.00       8.53        0.21   117.89   0.295
  SUB-0723789140            28.89       0.00       2.31      17.84      11.50       0.50       8.74        0.17   107.40   0.302
  SUB-0724889138            28.89       0.00       2.26      21.48       8.27       0.10       5.15        0.18   117.34   0.178
  SUB-0725595587            28.89       0.00       2.18      18.12      10.25       0.00       8.60        0.50   284.73   0.298
  SUB-0727092864            28.89       0.00       2.38      17.69      11.73       0.32       8.82        0.78   455.27   0.305
  SUB-0728395854            28.89       0.00       2.80      18.42      10.79       0.01       7.68        2.79   953.78   0.266
  SUB-0728893225            28.89       0.00       1.95      16.31      10.70       0.00      10.63        0.91   491.75   0.368
  SUB-0729293436            28.89       0.00       2.71      17.57      12.55       1.80       8.61        0.42   193.56   0.298
  SUB-0729688338            28.89       0.00       2.54      18.85      10.70       0.08       7.50        1.78   829.46   0.260
  SUB-0729895656            28.89       0.00       2.44      18.30      11.18       0.17       8.16        0.59   312.99   0.282
  SUB-0730887562            28.89       0.00       2.85      17.83      10.84       0.00       8.21        7.40  2369.56   0.284
  SUB-0732797790            28.89       0.00       2.77      14.69      14.85       2.61      11.44        0.40   176.54   0.396
  SUB-0732887572            28.89       0.00       1.92      14.58      12.39       0.00      12.39        0.19   106.46   0.429
  SUB-0733289188            28.89       0.00       2.47      18.52      11.17       0.38       7.91        0.75   420.86   0.274
  SUB-0736492157            28.89       0.00       2.57      18.52      11.46       0.66       7.81        0.90   467.58   0.270
  SUB-0738689663            28.89       0.00       3.28      16.29       0.00       0.00       0.00        0.00     0.00   0.000
  SUB-0742395851            28.89       0.00       2.47      18.93      10.56       0.13       7.50        0.81   423.19   0.259
  SUB-0742496730            28.89       0.00       3.05      17.74      12.34       0.17       8.10        1.94   656.95   0.280
  SUB-0743693945            28.89       0.00       2.09      16.54      11.11       0.00      10.26        1.47   790.89   0.355
  SUB-0745389644            28.89       0.00       1.82      16.33      10.75       0.00      10.75        0.72   484.68   0.372
  SUB-0745797707            28.89       0.00       3.15      16.38      14.03       0.65       9.36        2.16   715.13   0.324
  SUB-0746796704            28.89       0.00       1.96      15.62      11.31       0.00      11.31        0.20   103.88   0.391
  SUB-0749295959            28.89       0.00       2.60      18.72      10.86       0.08       7.57        1.17   516.90   0.262
  SUB-0750393368            28.89       0.00       2.58      18.12      10.93       0.02       8.20        2.11   865.17   0.284
  SUB-0752688210            28.89       0.00       2.40      18.75      10.76       0.16       7.74        0.78   435.68   0.268
  SUB-0757187659            28.89       0.00       2.40      19.55       9.45       0.00       6.94        1.27   586.73   0.240
  SUB-0758193382            28.89       0.00       2.35      18.11      11.16       0.12       8.44        0.65   362.20   0.292
  SUB-0762896670            28.89       0.00       2.70      18.94      10.70       0.04       7.25        3.29  1331.77   0.251
  SUB-0763888145            28.89       0.00       2.26      22.06       7.02       0.00       4.57        0.89   536.19   0.158
  SUB-0764389431            28.89       0.00       1.75      16.29      10.85       0.00      10.85        0.05    34.29   0.376
  SUB-0765289357            28.89       0.00       1.98      25.22       3.39       0.00       1.70        0.04    29.94   0.059
  SUB-0765392043            28.89       0.00       2.82      17.68      12.68       1.52       8.40        1.33   584.26   0.291
  SUB-0766089300            28.89       0.00       2.37      19.45       9.74       0.02       7.07        2.36  1170.01   0.245
  SUB-0768189689            28.89       0.00       3.01      15.73      14.50       2.19      10.15        3.29  1234.45   0.351
  SUB-0768295838            28.89       0.00       2.49      18.68      11.04       0.20       7.72        0.93   479.07   0.267
  SUB-0769291334            28.89       0.00       2.81      17.66      12.69       1.15       8.43        1.09   480.38   0.292
  SUB-0769392051            28.89       0.00       2.00      16.33      10.62       0.00      10.56        0.70   341.14   0.366
  SUB-0769591440            28.89       0.00       2.76      17.32      12.79       2.16       8.82        0.55   244.55   0.305
  SUB-0771989688            28.89       0.00       2.41      17.12      12.33       1.18       9.37        0.17    98.49   0.324
  SUB-0772189620            28.89       0.00       2.58      17.85      11.92       0.32       8.47        0.94   466.42   0.293
  SUB-0775392247            28.89       0.00       2.63      19.84      10.22       0.49       6.43        0.82   406.00   0.222
  SUB-0776992027            28.89       0.00       1.88      14.01      13.00       0.00      13.00        0.33   201.63   0.450
  SUB-0778995325            28.89       0.00       2.69      17.36      12.53       0.39       8.84        1.60   720.70   0.306
  SUB-0779491038            28.89       0.00       2.56      18.17      10.35       0.00       8.16        3.83  1559.32   0.282
  SUB-0779791135            28.89       0.00       2.36      19.96       9.69       0.49       6.57        0.12    76.08   0.227
  SUB-0780594425            28.89       0.00       2.53      16.53      12.66       0.49       9.83        2.34  1264.96   0.340
  SUB-0780996236            28.89       0.00       2.00      15.55      11.36       0.00      11.34        0.23   116.56   0.392
  SUB-0782192249            28.89       0.00       2.65      16.45      12.86       3.37       9.80        0.06    27.86   0.339
  SUB-0782796263            28.89       0.00       2.64      16.21      13.24       0.40      10.05        3.17  1554.06   0.348
  SUB-0785391732            28.89       0.00       2.36      18.14      11.08       0.08       8.39        0.67   363.41   0.291
  SUB-0785695065            28.89       0.00       2.86      19.47      11.04       0.40       6.57        1.62   652.59   0.227
  SUB-0785792041            28.89       0.00       2.27       0.00      26.63       0.00      26.63        0.11    55.83   0.922
  SUB-0785992265            28.89       0.00       2.72      16.91      12.81       2.85       9.26        0.18    81.10   0.320
  SUB-0787292164            28.89       0.00       2.26      17.15      11.93       1.03       9.48        0.10    61.28   0.328
  SUB-0787595715            28.89       0.00       2.55      19.04      10.84       0.24       7.31        0.60   301.53   0.253
  SUB-0787892668            28.89       0.00       2.59      18.78      10.90       0.13       7.52        2.13  1008.89   0.260
  SUB-0788191329            28.89       0.00       2.60      19.44      10.05       0.03       6.85        1.92   812.15   0.237
  SUB-0789292381            28.89       0.00       2.89      17.72      12.70       1.94       8.29        0.21    86.42   0.287
  SUB-0789995441            28.89       0.00       2.16      18.01      10.59       0.03       8.72        0.31   197.73   0.302
  SUB-0790192397            28.89       0.00       2.91      17.85      12.68       1.76       8.13        0.72   295.55   0.281
  SUB-0792894546            28.89       0.00       2.65      14.94      14.60       1.72      11.30        1.01   480.95   0.391
  SUB-0793695679            28.89       0.00       1.84      16.85      10.26       0.00      10.21        0.21   134.06   0.353
  SUB-0795592147            28.89       0.00       2.70      17.67      12.45       1.54       8.53        0.54   260.18   0.295
  SUB-0796289846            28.89       0.00       2.57      18.77      11.30       1.18       7.55        0.31   162.79   0.261
  SUB-0797193452            28.89       0.00       2.63      18.86      10.33       0.01       7.39        3.25  1246.70   0.256
  SUB-0797291032            28.89       0.00       2.63      18.90      10.38       0.02       7.36        3.34  1324.65   0.255
  SUB-0797885881            28.89       0.00       2.35      18.74       9.71       0.00       7.80        1.59   795.14   0.270
  SUB-0799794903            28.89       0.00       2.14      14.03      13.65       0.00      12.73        1.39   815.86   0.441
  SUB-0800889681            28.89       0.00       2.45      17.30      12.22       1.46       9.13        0.25   138.96   0.316
  SUB-0802292482            28.89       0.00       2.71      16.91      12.81       2.86       9.27        0.09    40.23   0.321
  SUB-0803195599            28.89       0.00       2.50      17.53      12.11       0.45       8.86        0.87   461.41   0.307
  SUB-0804992672            28.89       0.00       2.91      17.74      11.52       0.03       8.25        2.77   916.89   0.285
  SUB-0804993466            28.89       0.00       2.25      18.36      10.66       0.06       8.29        0.22   133.68   0.287
  SUB-0805588069            28.89       0.00       2.34      19.43       9.96       0.05       7.12        0.48   269.66   0.247
  SUB-0805592514            28.89       0.00       2.75      17.05      12.80       2.61       9.10        0.38   167.26   0.315
  SUB-0807189842            28.89       0.00       1.94      14.20      13.19       0.00      12.75        0.05    33.95   0.441
  SUB-0807389920            28.89       0.00       2.41      18.75      10.83       0.26       7.73        0.38   217.74   0.268
[...]
  1882191853.1                2.14      2.15      2.14      2.18         2.14
  1882693010.1                0.52      0.54      0.52      1.58         0.52
  1882793038.1                0.90      0.90      0.90      0.71         0.71
  1884892993.1                0.49      0.52      0.50      0.20         0.32
  1885592000.1                1.38      1.39      1.38      1.46         1.37
  1887492999.1                0.89      0.90      0.89      0.73         0.71
  1888291887.1                2.13      2.14      2.13      2.17         2.13
  1890091939.1                1.36      1.38      1.36      1.45         1.35
  1890192957.1                0.50      0.50      0.84      0.01         0.01
  1891992971.1                0.89      0.89      0.89      0.69         0.70
  1895092932.1                0.84      0.84      0.88      0.01         0.01
  1896192950.1                0.89      0.89      0.90      0.69         0.70
  1896391946.1                2.07      2.13      2.07      2.18         2.06
  1897391993.1                0.88      1.36      0.88      1.47         0.88
  1900492912.1                0.92      0.97      0.92      1.64         0.92
  1900492933.1                0.89      0.90      0.90      0.81         0.71
  1904192048.1                0.88      0.88      0.91      0.01         0.01
  1904292007.1                1.12      2.07      1.12      1.07         0.09
  1907292916.1                0.89      0.89      0.90      0.79         0.79
  1910192102.1                0.91      0.91      1.10      0.01         0.09
  1910392889.1                0.91      0.92      0.91      1.50         0.90
  1911392908.1                0.89      0.90      0.90      1.03         0.89
  1911792073.1                1.12      1.12      1.32      0.01         0.01
  1914992885.1                0.90      0.91      0.90      1.19         0.90
  1916692023.1                1.04      1.04      1.12      0.01         0.01
  1917792176.1                1.09      1.10      1.33      0.90         0.88
  1918092906.1                0.89      0.90      0.92      0.92         0.88
  1918792140.1                1.32      1.32      1.34      1.04         1.07
  1920692308.1                1.31      1.31      1.35      0.01         0.01
  1921491972.1                1.05      1.12      1.05      1.19         1.04
  1924292889.1                0.86      0.90      0.86      1.64         0.83
  1924592344.1                1.34      1.35      1.40      0.01         0.01
  1924692910.1                0.91      0.92      0.91      0.99         0.88
  1924792244.1                1.33      1.33      1.36      0.89         0.89
  1925592209.1                1.32      1.34      1.33      1.35         1.32
  1926491921.1                1.12      1.15      1.12      1.19         1.11
  1928692375.1                1.37      1.40      1.39      1.09         1.01
  1928792910.1                0.90      0.91      0.93      0.92         0.87
  1931991864.1                0.99      0.99      0.99      0.24         0.26
  1932792274.1                1.31      1.33      1.32      1.37         1.31
  1933192314.1                1.36      1.39      1.36      1.51         1.36
  1934292887.1                0.86      0.86      0.86      0.90         0.86
  1936992906.1                0.93      0.93      0.95      0.89         0.86
  1937491807.1                0.98      0.98      0.99      0.01         0.01
  1940492355.1                1.32      1.36      1.32      1.50         1.32
  1940992326.1                0.01      1.32      0.01      1.37         0.01
  1941892899.1                0.94      0.95      0.94      1.02         0.90
  1941992879.1                0.80      0.86      0.80      0.69         0.78
  1944891730.1                0.98      1.06      0.98      0.95         0.89
  1946292889.1                0.94      0.94      0.95      0.90         0.86
  1946991663.1                1.06      1.08      1.06      0.92         0.97
  1947692864.1                0.79      0.80      0.79      0.01         0.68
  1948191564.1                1.07      1.08      1.08      0.99         1.07
  1949692386.1                1.16      1.33      1.16      1.50         1.16
  1949791466.1                1.08      1.09      1.08      0.97         0.95
  1950092855.1                0.79      0.79      0.84      0.01         0.01
  1950292355.1                0.01      0.01      0.01      1.28         0.01
  1951291367.1                0.94      0.94      1.09      0.78         0.79
  1951292874.1                0.94      0.95      0.94      0.98         0.86
  1955492832.1                0.84      0.84      1.05      0.01         0.01
  1956192852.1                0.93      0.94      0.94      0.86         0.84
  1959392400.1                0.04      1.16      0.04      1.41         0.04
  1959992368.1                0.01      0.01      0.07      0.01         0.01
  1959992830.1                0.93      0.93      1.04      0.01         0.01
  1961392795.1                0.92      1.05      0.92      1.15         0.92
  1962692811.1                1.04      1.04      1.10      0.29         0.34
  1968992412.1                0.11      0.11      1.16      0.01         0.01
  1969492380.1                0.01      0.14      0.01      0.09         0.01
  1978692424.1                0.11      0.21      0.11      1.50         0.11
  1978892391.1                0.13      0.17      0.14      0.12         0.12
  1983592559.1                0.96      0.97      0.96      1.01         0.96
  1983792497.1                0.21      0.95      0.21      1.00         0.21
  1985792505.1                0.95      0.96      0.95      0.99         0.95
  1988292402.1                0.10      0.10      0.17      0.01         0.07
  1988592587.1                0.97      0.98      0.97      0.99         0.97
  1989992303.1                0.01      0.01      0.10      0.01         0.01
  1992792611.1                0.98      1.01      0.98      1.08         0.98
  1996792416.1                0.04      0.04      0.10      0.01         0.01
  1997392636.1                1.01      1.01      1.01      1.01         1.00
  2001792661.1                1.01      1.01      1.01      1.03         1.01
  2005092440.1                0.01      0.01      0.04      0.01         0.01
  2006892483.1                0.01      0.01      0.01      1.59         0.01
  2015592527.1                0.01      1.11      0.01      1.68         0.01
  2016492940.1                1.40      1.43      1.40      1.68         1.40
  2019492963.1                1.43      1.44      1.43      1.41         1.43
  2020392518.1                0.01      1.52      0.01      1.52         0.01
  2020692883.1                1.35      1.40      1.35      1.50         1.35
  2023193051.1                1.11      1.11      1.44      0.01         0.01
  2024192575.1                1.11      1.19      1.11      1.59         1.11
  2024492823.1                1.31      1.35      1.31      1.51         1.31
  2024992890.1                1.23      1.23      1.44      0.01         0.01
  2026793139.1                0.01      0.01      1.11      0.01         0.01
  2027291512.1                0.01      0.53      0.01      0.53         0.01
  2027392568.1                1.52      1.57      1.52      1.61         1.52
  2028792766.1                1.27      1.31      1.27      1.69         1.27
  2028992828.1                1.11      1.11      1.23      0.01         0.01
  2029592709.1                1.25      1.27      1.25      1.51         1.25
  2030392652.1                1.19      1.25      1.19      1.58         1.18
  2032892632.1                1.57      1.58      1.57      1.59         1.57
  2033692775.1                0.01      0.01      1.11      0.01         0.01
  2035391486.1                0.53      0.60      0.53      0.61         0.53
  2038392627.1                1.56      1.57      1.58      0.88         0.89
  2042693073.1                0.01      0.61      0.01      0.67         0.01
  2043792621.1                1.53      1.53      1.57      0.01         0.01
  2050593040.1                0.56      0.56      0.61      0.43         0.54
  2050692561.1                0.91      0.93      1.53      0.86         0.84
  2057692503.1                0.85      0.85      0.93      0.01         0.74
  2058593007.1                0.52      0.52      0.56      0.36         0.52
  2060491800.1                0.01      0.13      0.01      0.16         0.01
  2064692446.1                0.85      1.78      0.85      1.87         0.85
  2065791867.1                0.13      0.29      0.13      0.45         0.13
  2065792489.1                0.01      0.01      0.01      1.84         0.01
  2066492974.1                0.52      0.67      0.52      0.73         0.52
  2070891934.1                0.24      0.24      0.29      0.01         0.01
  2071392865.1                1.10      1.65      1.10      1.67         1.10
  2071792389.1                1.78      1.79      1.78      1.86         1.78
  2072892433.1                0.01      0.16      0.01      1.84         0.01
  2074592941.1                0.67      1.10      0.67      1.66         0.67
  2076192002.1                0.21      0.21      0.24      0.01         0.01
  2078992333.1                1.79      1.80      1.79      1.88         1.79
  2079892376.1                0.16      0.44      0.16      2.01         0.16
  2082692907.1                0.61      0.61      1.10      0.01         0.01
  2086192277.1                1.80      1.81      1.80      1.85         1.80
  2087092322.1                0.44      0.78      0.44      1.83         0.44
  2090692874.1                0.01      0.52      0.01      0.58         0.01
  2093292223.1                1.81      1.82      1.81      1.85         1.81
  2094192267.1                0.78      0.97      0.78      2.00         0.78
  2098792840.1                0.51      0.59      0.52      0.60         0.51
  2101192164.1                1.81      1.82      1.82      1.93         1.80
  2101992209.1                0.97      1.20      0.97      2.25         0.97
  2106892806.1                0.58      0.59      0.59      0.60         0.58
  2109092106.1                1.81      1.82      1.82      1.93         1.80
  2109892150.1                1.20      1.29      1.20      2.24         1.20
  2114992773.1                0.59      0.61      0.59      0.61         0.59
  2117092049.1                1.82      1.85      1.82      1.93         1.80
  2117892092.1                1.29      1.62      1.29      2.24         1.29
  2123092739.1                0.61      0.74      0.61      0.80         0.61
  2125191992.1                1.82      1.82      1.85      1.61         1.02
  2125892034.1                1.62      1.80      1.62      2.22         1.61
  2133291936.1                1.81      1.81      1.82      1.59         1.03
  2134091977.1                1.80      1.81      1.80      2.21         1.80
  2141391880.1                1.79      1.80      1.81      1.58         1.03
  2142191922.1                1.81      1.82      1.81      2.20         1.81
  2149591825.1                1.79      1.79      1.80      1.34         1.00
  2150491867.1                1.82      1.83      1.82      2.19         1.82
  2158791813.1                1.83      1.85      1.83      2.17         1.83
  2167091760.1                1.84      1.85      1.84      2.14         1.84
  2175491707.1                1.85      1.86      1.85      2.11         1.85
  2183891655.1                1.86      1.87      1.86      2.08         1.85
  2192391604.1                1.87      1.88      1.87      2.05         1.86
  2197392068.1                1.24      1.25      1.24      1.26         1.24
  2197591690.1                1.88      1.89      1.88      1.97         1.86
  2201991743.1                1.88      1.89      1.89      1.93         1.86
  2206492028.1                0.01      1.24      0.01      1.26         0.01
  2209791983.1                1.22      1.25      1.22      1.24         1.21
  2210391797.1                1.89      1.89      1.89      1.84         1.80
  2214291918.1                0.53      1.22      0.53      1.24         0.52
  2218691853.1                1.89      1.90      1.89      1.85         1.80
  2223591780.1                1.90      1.99      1.90      3.11         1.74
  2225291898.1                1.08      3.38      1.08      3.44         1.08
  2226691735.1                1.99      2.03      1.99      2.56         1.71
  2230591677.1                2.03      2.12      2.03      2.83         1.75
  2231891943.1                3.38      3.40      3.38      3.28         3.25
  2234491619.1                2.12      2.18      2.12      2.86         1.87
  2237991568.1                2.18      2.19      2.18      3.05         2.11
  2238491988.1                3.40      3.41      3.40      3.43         3.39
  2238992192.1                3.39      3.40      3.39      3.42         3.39
  2241891510.1                2.18      2.19      2.19      2.17         1.26
  2244891467.1                2.19      3.08      2.19      3.41         0.29
  2245092032.1                3.36      3.36      3.37      2.48         2.80
  2245892154.1                3.38      3.39      3.38      3.42         3.38
  2250091443.1                3.07      3.82      3.08      3.41         1.18
  2253192124.1                3.33      3.38      3.33      3.42         3.32
  2253492089.1                3.33      3.33      3.36      0.42         0.52
  2255191419.1                3.81      4.95      3.82      3.38         1.92
  2258491404.1                4.95      5.26      4.95      3.42         3.05
  2267791440.1                5.25      5.26      5.26      3.40         3.36
  2276891477.1                5.25      5.26      5.26      3.41         3.35
  2286191514.1                5.26      5.33      5.26      3.53         3.36
  2289891593.1                5.32      5.35      5.33      3.73         3.43
  2293091674.1                5.35      5.36      5.35      3.30         3.18
  2296491754.1                5.36      5.37      5.36      3.11         3.04
  CDT-105                    20.77     22.74     20.77      5.49         3.09
  CDT-113                    21.50     22.44     21.50      1.40         0.38
  CDT-131                     0.01      0.01      8.53      0.01         0.01
  CDT-135                     1.68      1.68      7.99      0.01         0.01
  CDT-137                     1.96      1.96     71.54      1.61         1.62
  CDT-141                     0.01      0.01      1.51      1.30         0.01
  CDT-19                      0.01      0.01      0.99      1.62         0.01
  CDT-21                      0.01      1.17      7.21      1.56         0.01
  CDT-23                     71.77     71.77     71.79      0.01         0.06
  CDT-25                     71.75     71.75     71.77      0.01         0.01
  CDT-43                      5.16      5.16      5.20      3.63         3.76
  CDT-45                      5.20      5.20      5.37      0.01         0.01
  CDT-47                      0.01      0.01      1.88      6.10         0.01
  CDT-49                      0.01      0.01      6.63      1.55         0.01
  CDT-51                      8.66      8.66      9.28      2.50         0.04
  CDT-53                      8.66      8.66     10.66      0.94         0.01
  
  
  ***************
  Pumping Summary
  ***************
  
  ---------------------------------------------------------------------------------------------------------
                                                  Min       Avg       Max     Total     Power    % Time Off
                        Percent   Number of      Flow      Flow      Flow    Volume     Usage    Pump Curve
  Pump                 Utilized   Start-Ups       LPS       LPS       LPS  10^6 ltr     Kw-hr    Low   High
  ---------------------------------------------------------------------------------------------------------
  0232097173.1             6.21           1      0.00     18.23    164.27     0.287      6.59    0.0    0.0
  0559894958.1             4.37           1      0.00     14.26    116.13     0.185      4.78    0.0    0.0
  DR13.P1                 13.24         169      0.00    450.00    450.00    15.440   1077.49    0.0  100.0
  DR13.P2                  8.98           2      0.00    450.00    450.00    10.472    927.49    0.0  100.0
  DR16.P2                 14.85        1063      0.00   1000.00   1000.00    38.486   2152.50    0.0  100.0
  DR16.P3                  5.68           6      0.00   1000.00   1000.00    14.730   1512.56    0.0  100.0
  DR16.P4                  4.80           2      0.00   1000.00   1000.00    12.441   1352.66    0.0  100.0
  DR18.P1                 95.95          95      0.00   1297.92   1400.00   329.087   7304.34    0.0   56.3
  DR18.P2                 40.27          80      0.00   1216.16   1400.00   127.759   3511.81    0.0    1.7
  DR18.P3                 16.13           3      0.00   1183.25   1400.00    49.531   1442.02    0.0    0.0
  DR19.P1                 22.85         468      0.00    200.00    200.00    11.846     95.07    0.0  100.0
  DR19.P2                 22.85         468      0.00    200.00    200.00    11.846     95.07    0.0  100.0
  DR19.P3                  4.07          10      0.00   1000.00   1000.00    10.551     60.73    0.0  100.0
  DR19.P4                  0.99           2      0.00   1000.00   1000.00     2.561     14.62    0.0  100.0
  DR19.P5                 10.95          30      0.00   1000.00   1000.00    28.374    191.04    0.0  100.0
  DR19.P6                  6.70          20      0.00   1000.00   1000.00    17.375    108.62    0.0  100.0
  DR20.P1                  0.00           0      0.00      0.00      0.00     0.000      0.00    0.0    0.0
  DR20.P3                  0.00           0      0.00      0.00      0.00     0.000      0.00    0.0    0.0
  DR20.P4                  0.00           0      0.00      0.00      0.00     0.000      0.00    0.0    0.0
  DR20.P5                  6.60          86      0.00    220.00    220.00     3.763     49.22    0.0  100.0
  DR20.P6                  6.60          86      0.00    350.00    350.00     5.986     78.30    0.0  100.0
  DR22.P1                 34.49          36      0.00    255.00    255.00    22.797    483.18    0.0  100.0
  DR22.P2                 10.44           7      0.00    255.00    255.00     6.901    204.67    0.0  100.0
  DR22.P3                  9.09           5      0.00    500.00    500.00    11.780    368.38    0.0  100.0
  DR22.P4                  6.79           4      0.00    500.00    500.00     8.799    295.60    0.0  100.0
  DR23.P1                 14.47         165      0.00   1737.96   1887.00    66.169   2292.55    0.0   46.4
  DR23.P2                  8.27          11      0.00   1680.28   1887.00    36.131   1558.28    0.0   10.0
  DR23.P3                  7.34           5      0.00   1656.94   1887.00    31.663   1421.57    0.0    1.6
  DR23.P4                  6.71           2      0.00   1651.77   1887.00    28.844   1308.63    0.0    0.3
  DR34.P1                  4.33          33      0.00    120.00    120.00     1.347      4.54    0.0  100.0
  DR34.P2                  2.97          19      0.00    120.00    120.00     0.923      2.79    0.0  100.0
  DR34.P3                  1.93          11      0.00    120.00    120.00     0.600      1.74    0.0  100.0
  PUMP-11                  0.00           0      0.00      0.00      0.00     0.000      0.00    0.0    0.0
  UP-DR23.P1               0.86          10      0.00     40.00     40.00     0.089      1.65    0.0  100.0
  UP-DR23.P2               0.14           2      0.00     40.00     40.00     0.014      0.28    0.0  100.0
  

  Analysis begun on:  Fri Mar  6 14:52:45 2026
  Analysis ended on:  Fri Mar  6 14:54:41 2026
  Total elapsed time: 00:01:56