
  EPA STORM WATER MANAGEMENT MODEL - VERSION 5.2 (Build 5.2.4)
  ------------------------------------------------------------

  WARNING 01: wet weather time step reduced to recording interval for Rain Gage RAINGAGE-1
  WARNING 04: minimum elevation drop used for Conduit CDT-27
  WARNING 08: elevation drop exceeds length for Conduit CDT-29
  WARNING 04: minimum elevation drop used for Conduit L1.60.0B1
  WARNING 04: minimum elevation drop used for Conduit L9.10.20
  WARNING 10: crest elevation raised to downstream invert for regulator Link L1.60.0B
  WARNING 02: maximum depth increased for Node N10.10.10B
  WARNING 02: maximum depth increased for Node N3.180.10A
  
  ****************
  Analysis Options
  ****************
  Flow Units ............... CFS
  Process Models:
    Rainfall/Runoff ........ YES
    RDII ................... NO
    Snowmelt ............... NO
    Groundwater ............ NO
    Flow Routing ........... YES
    Ponding Allowed ........ YES
    Water Quality .......... NO
  Infiltration Method ...... CURVE_NUMBER
  Flow Routing Method ...... DYNWAVE
  Surcharge Method ......... EXTRAN
  Starting Date ............ 01/01/2002 00:00:00
  Ending Date .............. 01/01/2002 23:00:00
  Antecedent Dry Days ...... 5.0
  Report Time Step ......... 00:01:00
  Wet Time Step ............ 00:03:00
  Dry Time Step ............ 01:00:00
  Routing Time Step ........ 30.00 sec
  Variable Time Step ....... YES
  Maximum Trials ........... 8
  Number of Threads ........ 1
  Head Tolerance ........... 0.005000 ft
  
  
  **************************        Volume         Depth
  Runoff Quantity Continuity     acre-feet        inches
  **************************     ---------       -------
  Total Precipitation ......       221.832         1.000
  Evaporation Loss .........         0.000         0.000
  Infiltration Loss ........        11.012         0.050
  Surface Runoff ...........         0.000         0.000
  Final Storage ............       210.820         0.950
  Continuity Error (%) .....         0.000
  
  
  **************************        Volume        Volume
  Flow Routing Continuity        acre-feet      10^6 gal
  **************************     ---------     ---------
  Dry Weather Inflow .......         0.000         0.000
  Wet Weather Inflow .......         0.000         0.000
  Groundwater Inflow .......         0.000         0.000
  RDII Inflow ..............         0.000         0.000
  External Inflow ..........         0.000         0.000
  External Outflow .........         0.000         0.000
  Flooding Loss ............         0.000         0.000
  Evaporation Loss .........         0.000         0.000
  Exfiltration Loss ........         0.000         0.000
  Initial Stored Volume ....         0.000         0.000
  Final Stored Volume ......         0.000         0.000
  Continuity Error (%) .....         0.000
  
  
  ***************************
  Time-Step Critical Elements
  ***************************
  None
  
  
  ********************************
  Highest Flow Instability Indexes
  ********************************
  All links are stable.
  
  
  *********************************
  Most Frequent Nonconverging Nodes
  *********************************
  Convergence obtained at all time steps.
  
  
  *************************
  Routing Time Step Summary
  *************************
  Minimum Time Step           :    29.50 sec
  Average Time Step           :    29.99 sec
  Maximum Time Step           :    30.00 sec
  % of Time in Steady State   :     0.00
  Average Iterations per Step :     2.00
  % of Steps Not Converging   :     0.00
  Time Step Frequencies       :
     30.000 - 13.228 sec      :   100.00 %
     13.228 -  5.833 sec      :     0.00 %
      5.833 -  2.572 sec      :     0.00 %
      2.572 -  1.134 sec      :     0.00 %
      1.134 -  0.500 sec      :     0.00 %
  
  
  ***************************
  Subcatchment Runoff Summary
  ***************************
  
  ------------------------------------------------------------------------------------------------------------------------------
                            Total      Total      Total      Total     Imperv       Perv      Total       Total     Peak  Runoff
                           Precip      Runon       Evap      Infil     Runoff     Runoff     Runoff      Runoff   Runoff   Coeff
  Subcatchment                 in         in         in         in         in         in         in    10^6 gal      CFS
  ------------------------------------------------------------------------------------------------------------------------------
  SUB-1150                   1.00       0.00       0.00       0.00       0.00       0.00       0.00        0.00     0.00   0.000
  SUB-1152                   1.00       0.00       0.00       0.00       0.00       0.00       0.00        0.00     0.00   0.000
  SUB-1154                   1.00       0.00       0.00       0.00       0.00       0.00       0.00        0.00     0.00   0.000
  SUB-1156                   1.00       0.00       0.00       0.00       0.00       0.00       0.00        0.00     0.00   0.000
  SUB-1158                   1.00       0.00       0.00       0.00       0.00       0.00       0.00        0.00     0.00   0.000
  SUB-1160                   1.00       0.00       0.00       0.00       0.00       0.00       0.00        0.00     0.00   0.000
  SUB-1162                   1.00       0.00       0.00       0.00       0.00       0.00       0.00        0.00     0.00   0.000
  SUB-1164                   1.00       0.00       0.00       0.00       0.00       0.00       0.00        0.00     0.00   0.000
  SUB-1166                   1.00       0.00       0.00       0.00       0.00       0.00       0.00        0.00     0.00   0.000
  SUB-1168                   1.00       0.00       0.00       0.00       0.00       0.00       0.00        0.00     0.00   0.000
  SUB-1170                   1.00       0.00       0.00       0.00       0.00       0.00       0.00        0.00     0.00   0.000
  SUB-1172                   1.00       0.00       0.00       0.00       0.00       0.00       0.00        0.00     0.00   0.000
  SUB-1174                   1.00       0.00       0.00       0.00       0.00       0.00       0.00        0.00     0.00   0.000
  SUB-1176                   1.00       0.00       0.00       0.00       0.00       0.00       0.00        0.00     0.00   0.000
  SUB-1178                   1.00       0.00       0.00       0.00       0.00       0.00       0.00        0.00     0.00   0.000
  SUB-1180                   1.00       0.00       0.00       0.00       0.00       0.00       0.00        0.00     0.00   0.000
  SUB-1182                   1.00       0.00       0.00       0.00       0.00       0.00       0.00        0.00     0.00   0.000
  SUB-1184                   1.00       0.00       0.00       0.00       0.00       0.00       0.00        0.00     0.00   0.000
  SUB-1186                   1.00       0.00       0.00       0.00       0.00       0.00       0.00        0.00     0.00   0.000
  SUB-1188                   1.00       0.00       0.00       0.00       0.00       0.00       0.00        0.00     0.00   0.000
  SUB-1190                   1.00       0.00       0.00       0.00       0.00       0.00       0.00        0.00     0.00   0.000
  SUB-1192                   1.00       0.00       0.00       0.00       0.00       0.00       0.00        0.00     0.00   0.000
  SUB-1194                   1.00       0.00       0.00       0.00       0.00       0.00       0.00        0.00     0.00   0.000
  SUB-1196                   1.00       0.00       0.00       0.00       0.00       0.00       0.00        0.00     0.00   0.000
  SUB-1198                   1.00       0.00       0.00       0.00       0.00       0.00       0.00        0.00     0.00   0.000
  SUB-1200                   1.00       0.00       0.00       0.00       0.00       0.00       0.00        0.00     0.00   0.000
  SUB-1202                   1.00       0.00       0.00       0.00       0.00       0.00       0.00        0.00     0.00   0.000
  SUB-1204                   1.00       0.00       0.00       0.00       0.00       0.00       0.00        0.00     0.00   0.000
  SUB-1206                   1.00       0.00       0.00       0.00       0.00       0.00       0.00        0.00     0.00   0.000
  SUB-1208                   1.00       0.00       0.00       0.00       0.00       0.00       0.00        0.00     0.00   0.000
  SUB-1210                   1.00       0.00       0.00       0.00       0.00       0.00       0.00        0.00     0.00   0.000
  SUB-1212                   1.00       0.00       0.00       0.00       0.00       0.00       0.00        0.00     0.00   0.000
  SUB-1214                   1.00       0.00       0.00       0.00       0.00       0.00       0.00        0.00     0.00   0.000
  SUB-1216                   1.00       0.00       0.00       0.00       0.00       0.00       0.00        0.00     0.00   0.000
  SUB-1218                   1.00       0.00       0.00       0.00       0.00       0.00       0.00        0.00     0.00   0.000
  SUB-1220                   1.00       0.00       0.00       0.00       0.00       0.00       0.00        0.00     0.00   0.000
  SUB-1222                   1.00       0.00       0.00       0.00       0.00       0.00       0.00        0.00     0.00   0.000
  SUB-1224                   1.00       0.00       0.00       0.00       0.00       0.00       0.00        0.00     0.00   0.000
  SUB-1226                   1.00       0.00       0.00       0.00       0.00       0.00       0.00        0.00     0.00   0.000
  SUB-1228                   1.00       0.00       0.00       0.00       0.00       0.00       0.00        0.00     0.00   0.000
  SUB-1230                   1.00       0.00       0.00       0.00       0.00       0.00       0.00        0.00     0.00   0.000
  SUB-1232                   1.00       0.00       0.00       0.00       0.00       0.00       0.00        0.00     0.00   0.000
  SUB-1234                   1.00       0.00       0.00       0.00       0.00       0.00       0.00        0.00     0.00   0.000
  SUB-1236                   1.00       0.00       0.00       0.00       0.00       0.00       0.00        0.00     0.00   0.000
  SUB-1238                   1.00       0.00       0.00       0.00       0.00       0.00       0.00        0.00     0.00   0.000
  SUB-1240                   1.00       0.00       0.00       0.00       0.00       0.00       0.00        0.00     0.00   0.000
  SUB-1242                   1.00       0.00       0.00       0.00       0.00       0.00       0.00        0.00     0.00   0.000
  SUB-1244                   1.00       0.00       0.00       0.00       0.00       0.00       0.00        0.00     0.00   0.000
  SUB-1246                   1.00       0.00       0.00       0.00       0.00       0.00       0.00        0.00     0.00   0.000
  SUB-1248                   1.00       0.00       0.00       0.00       0.00       0.00       0.00        0.00     0.00   0.000
  SUB-1250                   1.00       0.00       0.00       0.00       0.00       0.00       0.00        0.00     0.00   0.000
  SUB-1252                   1.00       0.00       0.00       0.00       0.00       0.00       0.00        0.00     0.00   0.000
  SUB-1254                   1.00       0.00       0.00       0.53       0.00       0.00       0.00        0.00     0.00   0.000
  SUB-1256                   1.00       0.00       0.00       0.00       0.00       0.00       0.00        0.00     0.00   0.000
  SUB-1258                   1.00       0.00       0.00       0.00       0.00       0.00       0.00        0.00     0.00   0.000
  SUB-1260                   1.00       0.00       0.00       0.00       0.00       0.00       0.00        0.00     0.00   0.000
  SUB-1262                   1.00       0.00       0.00       0.00       0.00       0.00       0.00        0.00     0.00   0.000
  SUB-1264                   1.00       0.00       0.00       0.00       0.00       0.00       0.00        0.00     0.00   0.000
  SUB-1266                   1.00       0.00       0.00       0.00       0.00       0.00       0.00        0.00     0.00   0.000
  SUB-1268                   1.00       0.00       0.00       0.00       0.00       0.00       0.00        0.00     0.00   0.000
  SUB-1270                   1.00       0.00       0.00       0.00       0.00       0.00       0.00        0.00     0.00   0.000
  SUB-1272                   1.00       0.00       0.00       0.00       0.00       0.00       0.00        0.00     0.00   0.000
  SUB-1274                   1.00       0.00       0.00       0.00       0.00       0.00       0.00        0.00     0.00   0.000
  SUB-1276                   1.00       0.00       0.00       0.00       0.00       0.00       0.00        0.00     0.00   0.000
  SUB-1278                   1.00       0.00       0.00       0.00       0.00       0.00       0.00        0.00     0.00   0.000
  SUB-1280                   1.00       0.00       0.00       0.00       0.00       0.00       0.00        0.00     0.00   0.000
  SUB-1282                   1.00       0.00       0.00       0.00       0.00       0.00       0.00        0.00     0.00   0.000
  SUB-1284                   1.00       0.00       0.00       0.00       0.00       0.00       0.00        0.00     0.00   0.000
  SUB-1286                   1.00       0.00       0.00       0.00       0.00       0.00       0.00        0.00     0.00   0.000
  SUB-1288                   1.00       0.00       0.00       0.00       0.00       0.00       0.00        0.00     0.00   0.000
  SUB-1290                   1.00       0.00       0.00       0.00       0.00       0.00       0.00        0.00     0.00   0.000
  SUB-1292                   1.00       0.00       0.00       0.00       0.00       0.00       0.00        0.00     0.00   0.000
  SUB-1294                   1.00       0.00       0.00       0.00       0.00       0.00       0.00        0.00     0.00   0.000
  SUB-1296                   1.00       0.00       0.00       0.00       0.00       0.00       0.00        0.00     0.00   0.000
  SUB-1298                   1.00       0.00       0.00       0.00       0.00       0.00       0.00        0.00     0.00   0.000
  SUB-1300                   1.00       0.00       0.00       0.53       0.00       0.00       0.00        0.00     0.00   0.000
  SUB-1302                   1.00       0.00       0.00       0.00       0.00       0.00       0.00        0.00     0.00   0.000
  SUB-1304                   1.00       0.00       0.00       0.00       0.00       0.00       0.00        0.00     0.00   0.000
  SUB-1306                   1.00       0.00       0.00       0.00       0.00       0.00       0.00        0.00     0.00   0.000
  SUB-1308                   1.00       0.00       0.00       0.54       0.00       0.00       0.00        0.00     0.00   0.000
  SUB-1310                   1.00       0.00       0.00       0.00       0.00       0.00       0.00        0.00     0.00   0.000
  SUB-1312                   1.00       0.00       0.00       0.00       0.00       0.00       0.00        0.00     0.00   0.000
  SUB-1314                   1.00       0.00       0.00       0.00       0.00       0.00       0.00        0.00     0.00   0.000
  SUB-1316                   1.00       0.00       0.00       0.00       0.00       0.00       0.00        0.00     0.00   0.000
  SUB-1318                   1.00       0.00       0.00       0.00       0.00       0.00       0.00        0.00     0.00   0.000
  SUB-1320                   1.00       0.00       0.00       0.00       0.00       0.00       0.00        0.00     0.00   0.000
  SUB-1322                   1.00       0.00       0.00       0.00       0.00       0.00       0.00        0.00     0.00   0.000
  SUB-1324                   1.00       0.00       0.00       0.00       0.00       0.00       0.00        0.00     0.00   0.000
  SUB-1326                   1.00       0.00       0.00       0.00       0.00       0.00       0.00        0.00     0.00   0.000
  SUB-1328                   1.00       0.00       0.00       0.00       0.00       0.00       0.00        0.00     0.00   0.000
  SUB-1330                   1.00       0.00       0.00       0.00       0.00       0.00       0.00        0.00     0.00   0.000
  SUB-1332                   1.00       0.00       0.00       0.00       0.00       0.00       0.00        0.00     0.00   0.000
  SUB-1334                   1.00       0.00       0.00       0.00       0.00       0.00       0.00        0.00     0.00   0.000
  SUB-1336                   1.00       0.00       0.00       0.00       0.00       0.00       0.00        0.00     0.00   0.000
  SUB-1338                   1.00       0.00       0.00       0.00       0.00       0.00       0.00        0.00     0.00   0.000
  SUB-1340                   1.00       0.00       0.00       0.00       0.00       0.00       0.00        0.00     0.00   0.000
  SUB-1342                   1.00       0.00       0.00       0.00       0.00       0.00       0.00        0.00     0.00   0.000
  SUB-1344                   1.00       0.00       0.00       0.00       0.00       0.00       0.00        0.00     0.00   0.000
  SUB-1346                   1.00       0.00       0.00       0.00       0.00       0.00       0.00        0.00     0.00   0.000
  SUB-1348                   1.00       0.00       0.00       0.38       0.00       0.00       0.00        0.00     0.00   0.000
  SUB-1350                   1.00       0.00       0.00       0.00       0.00       0.00       0.00        0.00     0.00   0.000
  SUB-1352                   1.00       0.00       0.00       0.00       0.00       0.00       0.00        0.00     0.00   0.000
  SUB-1354                   1.00       0.00       0.00       0.00       0.00       0.00       0.00        0.00     0.00   0.000
  SUB-1356                   1.00       0.00       0.00       0.00       0.00       0.00       0.00        0.00     0.00   0.000
  SUB-1358                   1.00       0.00       0.00       0.00       0.00       0.00       0.00        0.00     0.00   0.000
  SUB-1360                   1.00       0.00       0.00       0.00       0.00       0.00       0.00        0.00     0.00   0.000
  SUB-1362                   1.00       0.00       0.00       0.00       0.00       0.00       0.00        0.00     0.00   0.000
  SUB-1364                   1.00       0.00       0.00       0.00       0.00       0.00       0.00        0.00     0.00   0.000
  SUB-1366                   1.00       0.00       0.00       0.00       0.00       0.00       0.00        0.00     0.00   0.000
  SUB-1368                   1.00       0.00       0.00       0.00       0.00       0.00       0.00        0.00     0.00   0.000
  SUB-1370                   1.00       0.00       0.00       0.00       0.00       0.00       0.00        0.00     0.00   0.000
  SUB-1372                   1.00       0.00       0.00       0.00       0.00       0.00       0.00        0.00     0.00   0.000
  SUB-1374                   1.00       0.00       0.00       0.00       0.00       0.00       0.00        0.00     0.00   0.000
  SUB-1376                   1.00       0.00       0.00       0.00       0.00       0.00       0.00        0.00     0.00   0.000
  SUB-1378                   1.00       0.00       0.00       0.00       0.00       0.00       0.00        0.00     0.00   0.000
  SUB-1380                   1.00       0.00       0.00       0.00       0.00       0.00       0.00        0.00     0.00   0.000
  SUB-1382                   1.00       0.00       0.00       0.00       0.00       0.00       0.00        0.00     0.00   0.000
  SUB-1384                   1.00       0.00       0.00       0.00       0.00       0.00       0.00        0.00     0.00   0.000
  SUB-1386                   1.00       0.00       0.00       0.00       0.00       0.00       0.00        0.00     0.00   0.000
  SUB-1388                   1.00       0.00       0.00       0.00       0.00       0.00       0.00        0.00     0.00   0.000
  SUB-1390                   1.00       0.00       0.00       0.00       0.00       0.00       0.00        0.00     0.00   0.000
  SUB-1392                   1.00       0.00       0.00       0.00       0.00       0.00       0.00        0.00     0.00   0.000
  SUB-1394                   1.00       0.00       0.00       0.00       0.00       0.00       0.00        0.00     0.00   0.000
  SUB-1396                   1.00       0.00       0.00       0.00       0.00       0.00       0.00        0.00     0.00   0.000
  SUB-1398                   1.00       0.00       0.00       0.00       0.00       0.00       0.00        0.00     0.00   0.000
  SUB-1400                   1.00       0.00       0.00       0.00       0.00       0.00       0.00        0.00     0.00   0.000
  SUB-1402                   1.00       0.00       0.00       0.00       0.00       0.00       0.00        0.00     0.00   0.000
  SUB-1404                   1.00       0.00       0.00       0.00       0.00       0.00       0.00        0.00     0.00   0.000
  SUB-1406                   1.00       0.00       0.00       0.00       0.00       0.00       0.00        0.00     0.00   0.000
  SUB-1408                   1.00       0.00       0.00       0.00       0.00       0.00       0.00        0.00     0.00   0.000
  SUB-1410                   1.00       0.00       0.00       0.00       0.00       0.00       0.00        0.00     0.00   0.000
  SUB-1412                   1.00       0.00       0.00       0.00       0.00       0.00       0.00        0.00     0.00   0.000
  SUB-1414                   1.00       0.00       0.00       0.00       0.00       0.00       0.00        0.00     0.00   0.000
  SUB-1416                   1.00       0.00       0.00       0.00       0.00       0.00       0.00        0.00     0.00   0.000
  SUB-1418                   1.00       0.00       0.00       0.00       0.00       0.00       0.00        0.00     0.00   0.000
  SUB-1420                   1.00       0.00       0.00       0.00       0.00       0.00       0.00        0.00     0.00   0.000
  SUB-1422                   1.00       0.00       0.00       0.00       0.00       0.00       0.00        0.00     0.00   0.000
  SUB-1424                   1.00       0.00       0.00       0.00       0.00       0.00       0.00        0.00     0.00   0.000
  SUB-1426                   1.00       0.00       0.00       0.00       0.00       0.00       0.00        0.00     0.00   0.000
  SUB-1428                   1.00       0.00       0.00       0.00       0.00       0.00       0.00        0.00     0.00   0.000
  SUB-1430                   1.00       0.00       0.00       0.00       0.00       0.00       0.00        0.00     0.00   0.000
  SUB-1432                   1.00       0.00       0.00       0.00       0.00       0.00       0.00        0.00     0.00   0.000
  SUB-1434                   1.00       0.00       0.00       0.00       0.00       0.00       0.00        0.00     0.00   0.000
  SUB-1436                   1.00       0.00       0.00       0.00       0.00       0.00       0.00        0.00     0.00   0.000
  SUB-1438                   1.00       0.00       0.00       0.00       0.00       0.00       0.00        0.00     0.00   0.000
  SUB-1440                   1.00       0.00       0.00       0.00       0.00       0.00       0.00        0.00     0.00   0.000
  SUB-1442                   1.00       0.00       0.00       0.00       0.00       0.00       0.00        0.00     0.00   0.000
  SUB-1444                   1.00       0.00       0.00       0.00       0.00       0.00       0.00        0.00     0.00   0.000
  SUB-1446                   1.00       0.00       0.00       0.00       0.00       0.00       0.00        0.00     0.00   0.000
  SUB-1448                   1.00       0.00       0.00       0.00       0.00       0.00       0.00        0.00     0.00   0.000
  SUB-1450                   1.00       0.00       0.00       0.00       0.00       0.00       0.00        0.00     0.00   0.000
  SUB-1452                   1.00       0.00       0.00       0.00       0.00       0.00       0.00        0.00     0.00   0.000
  SUB-1454                   1.00       0.00       0.00       0.00       0.00       0.00       0.00        0.00     0.00   0.000
  SUB-1456                   1.00       0.00       0.00       0.00       0.00       0.00       0.00        0.00     0.00   0.000
  SUB-1458                   1.00       0.00       0.00       0.00       0.00       0.00       0.00        0.00     0.00   0.000
  SUB-1460                   1.00       0.00       0.00       0.99       0.00       0.00       0.00        0.00     0.00   0.000
  SUB-1462                   1.00       0.00       0.00       0.00       0.00       0.00       0.00        0.00     0.00   0.000
  SUB-1464                   1.00       0.00       0.00       0.00       0.00       0.00       0.00        0.00     0.00   0.000
  SUB-1466                   1.00       0.00       0.00       0.00       0.00       0.00       0.00        0.00     0.00   0.000
  SUB-1468                   1.00       0.00       0.00       0.00       0.00       0.00       0.00        0.00     0.00   0.000
  SUB-1470                   1.00       0.00       0.00       0.00       0.00       0.00       0.00        0.00     0.00   0.000
  SUB-1472                   1.00       0.00       0.00       0.00       0.00       0.00       0.00        0.00     0.00   0.000
  SUB-1474                   1.00       0.00       0.00       0.00       0.00       0.00       0.00        0.00     0.00   0.000
  SUB-1476                   1.00       0.00       0.00       0.00       0.00       0.00       0.00        0.00     0.00   0.000
  SUB-1478                   1.00       0.00       0.00       0.00       0.00       0.00       0.00        0.00     0.00   0.000
  SUB-1480                   1.00       0.00       0.00       0.00       0.00       0.00       0.00        0.00     0.00   0.000
  SUB-1482                   1.00       0.00       0.00       0.00       0.00       0.00       0.00        0.00     0.00   0.000
  SUB-1484                   1.00       0.00       0.00       0.00       0.00       0.00       0.00        0.00     0.00   0.000
  SUB-1486                   1.00       0.00       0.00       0.00       0.00       0.00       0.00        0.00     0.00   0.000
  SUB-1488                   1.00       0.00       0.00       0.00       0.00       0.00       0.00        0.00     0.00   0.000
  SUB-1490                   1.00       0.00       0.00       0.00       0.00       0.00       0.00        0.00     0.00   0.000
  SUB-1492                   1.00       0.00       0.00       0.00       0.00       0.00       0.00        0.00     0.00   0.000
  SUB-1494                   1.00       0.00       0.00       0.00       0.00       0.00       0.00        0.00     0.00   0.000
  SUB-1496                   1.00       0.00       0.00       0.00       0.00       0.00       0.00        0.00     0.00   0.000
  SUB-1498                   1.00       0.00       0.00       0.00       0.00       0.00       0.00        0.00     0.00   0.000
  SUB-1500                   1.00       0.00       0.00       0.00       0.00       0.00       0.00        0.00     0.00   0.000
  SUB-1502                   1.00       0.00       0.00       0.00       0.00       0.00       0.00        0.00     0.00   0.000
  SUB-1504                   1.00       0.00       0.00       0.00       0.00       0.00       0.00        0.00     0.00   0.000
  SUB-1506                   1.00       0.00       0.00       0.00       0.00       0.00       0.00        0.00     0.00   0.000
  SUB-1508                   1.00       0.00       0.00       0.00       0.00       0.00       0.00        0.00     0.00   0.000
  SUB-1510                   1.00       0.00       0.00       0.00       0.00       0.00       0.00        0.00     0.00   0.000
  SUB-1512                   1.00       0.00       0.00       0.00       0.00       0.00       0.00        0.00     0.00   0.000
  SUB-1514                   1.00       0.00       0.00       0.00       0.00       0.00       0.00        0.00     0.00   0.000
  SUB-1516                   1.00       0.00       0.00       0.00       0.00       0.00       0.00        0.00     0.00   0.000
  SUB-1518                   1.00       0.00       0.00       0.00       0.00       0.00       0.00        0.00     0.00   0.000
  SUB-1520                   1.00       0.00       0.00       0.00       0.00       0.00       0.00        0.00     0.00   0.000
  SUB-1522                   1.00       0.00       0.00       0.00       0.00       0.00       0.00        0.00     0.00   0.000
  SUB-1524                   1.00       0.00       0.00       1.00       0.00       0.00       0.00        0.00     0.00   0.000
  SUB-1526                   1.00       0.00       0.00       0.45       0.00       0.00       0.00        0.00     0.00   0.000
  
  
  ******************
  Node Depth Summary
  ******************
  
  ---------------------------------------------------------------------------------
                                 Average  Maximum  Maximum  Time of Max    Reported
                                   Depth    Depth      HGL   Occurrence   Max Depth
  Node                 Type         Feet     Feet     Feet  days hr:min        Feet
  ---------------------------------------------------------------------------------
  N1.10.0A             JUNCTION     0.00     0.00  4265.00     0  00:00        0.00
  N1.10.10             JUNCTION     0.00     0.00  4254.80     0  00:00        0.00
  N1.10.20             JUNCTION     0.00     0.00  4244.70     0  00:00        0.00
  N1.10.30A            JUNCTION     0.00     0.00  4238.00     0  00:00        0.00
  N1.10.32             JUNCTION     0.00     0.00  4228.00     0  00:00        0.00
  N1.10.35             JUNCTION     0.00     0.00  4222.00     0  00:00        0.00
  N1.10.37             JUNCTION     0.00     0.00  4231.54     0  00:00        0.00
  N1.10.40A            JUNCTION     0.00     0.00  4220.00     0  00:00        0.00
  N1.10.40B            JUNCTION     0.00     0.00  4217.00     0  00:00        0.00
  N1.10.5              JUNCTION     0.00     0.00  4257.90     0  00:00        0.00
  N1.12.0              JUNCTION     0.00     0.00  4235.44     0  00:00        0.00
  N1.20.10             JUNCTION     0.00     0.00  4243.80     0  00:00        0.00
  N1.20.20             JUNCTION     0.00     0.00  4242.70     0  00:00        0.00
  N1.20.20A            JUNCTION     0.00     0.00  4240.00     0  00:00        0.00
  N1.20.30A            JUNCTION     0.00     0.00  4231.00     0  00:00        0.00
  N1.20.35             JUNCTION     0.00     0.00  4228.00     0  00:00        0.00
  N1.20.40A            JUNCTION     0.00     0.00  4225.00     0  00:00        0.00
  N1.20.40B            JUNCTION     0.00     0.00  4222.50     0  00:00        0.00
  N1.30.0              JUNCTION     0.00     0.00  4242.70     0  00:00        0.00
  N1.30.0A             JUNCTION     0.00     0.00  4244.00     0  00:00        0.00
  N1.30.20             JUNCTION     0.00     0.00  4239.00     0  00:00        0.00
  N1.30.20A            JUNCTION     0.00     0.00  4234.92     0  00:00        0.00
  N1.40.0              JUNCTION     0.00     0.00  4236.14     0  00:00        0.00
  N1.40.10A            JUNCTION     0.00     0.00  4233.98     0  00:00        0.00
  N1.50.0              JUNCTION     0.00     0.00  4298.50     0  00:00        0.00
  N1.50.10             JUNCTION     0.00     0.00  4292.00     0  00:00        0.00
  N1.50.20             JUNCTION     0.00     0.00  4289.40     0  00:00        0.00
  N1.50.20B            JUNCTION     0.00     0.00  4287.98     0  00:00        0.00
  N1.50.40             JUNCTION     0.00     0.00  4278.91     0  00:00        0.00
  N1.50.40A            JUNCTION     0.00     0.00  4244.67     0  00:00        0.00
  N1.50.42             JUNCTION     0.00     0.00  4259.90     0  00:00        0.00
  N1.50.45             JUNCTION     0.00     0.00  4269.40     0  00:00        0.00
  N1.50.50             JUNCTION     0.00     0.00  4259.00     0  00:00        0.00
  N1.50.55             JUNCTION     0.00     0.00  4246.55     0  00:00        0.00
  N1.50.65             JUNCTION     0.00     0.00  4236.79     0  00:00        0.00
  N1.60.0              JUNCTION     0.00     0.00  4290.00     0  00:00        0.00
  N1.60.0A1            JUNCTION     0.00     0.00  4288.16     0  00:00        0.00
  N1.60.0B1            JUNCTION     0.00     0.00  4288.00     0  00:00        0.00
  N1.60.30             JUNCTION     0.00     0.00  4286.20     0  00:00        0.00
  N1.60.30A            JUNCTION     0.00     0.00  4285.75     0  00:00        0.00
  N1.70.0              JUNCTION     0.00     0.00  4285.00     0  00:00        0.00
  N1.70.10             JUNCTION     0.00     0.00  4267.00     0  00:00        0.00
  N1.70.10A            JUNCTION     0.00     0.00  4264.16     0  00:00        0.00
  N1.80.0              JUNCTION     0.00     0.00  4239.48     0  00:00        0.00
  N10.10.0A            JUNCTION     0.00     0.00  4213.00     0  00:00        0.00
  N10.10.10A           JUNCTION     0.00     0.00  4211.24     0  00:00        0.00
  N10.10.10B           JUNCTION     0.00     0.00  4210.44     0  00:00        0.00
  N10.10.5A            JUNCTION     0.00     0.00  4212.29     0  00:00        0.00
  N10.5.0              JUNCTION     0.00     0.00  4214.39     0  00:00        0.00
  N11.10.0             JUNCTION     0.00     0.00  4319.15     0  00:00        0.00
  N11.10.10            JUNCTION     0.00     0.00  4317.00     0  00:00        0.00
  N13.10.0A            JUNCTION     0.00     0.00  4237.94     0  00:00        0.00
  N13.10.0B            JUNCTION     0.00     0.00  4234.34     0  00:00        0.00
  N13.10.0C            JUNCTION     0.00     0.00  4232.67     0  00:00        0.00
  N13.10.0D            JUNCTION     0.00     0.00  4231.42     0  00:00        0.00
  N13.10.20A           JUNCTION     0.00     0.00  4224.20     0  00:00        0.00
  N13.10.25            JUNCTION     0.00     0.00  4223.34     0  00:00        0.00
  N13.10.30A           JUNCTION     0.00     0.00  4220.20     0  00:00        0.00
  N13.10.30B           JUNCTION     0.00     0.00  4217.20     0  00:00        0.00
  N13.10.40A           JUNCTION     0.00     0.00  4210.30     0  00:00        0.00
  N13.10.40B           JUNCTION     0.00     0.00  4209.09     0  00:00        0.00
  N13.10.40C           JUNCTION     0.00     0.00  4213.46     0  00:00        0.00
  N13.35.0A            JUNCTION     0.00     0.00  4231.00     0  00:00        0.00
  N13.35.10            JUNCTION     0.00     0.00  4232.00     0  00:00        0.00
  N13.35.20            JUNCTION     0.00     0.00  4224.50     0  00:00        0.00
  N14.10.0             JUNCTION     0.00     0.00  4242.00     0  00:00        0.00
  N15.10.0             JUNCTION     0.00     0.00  4211.74     0  00:00        0.00
  N15.10.0B            JUNCTION     0.00     0.00  4209.76     0  00:00        0.00
  N15.10.0D            JUNCTION     0.00     0.00  4210.99     0  00:00        0.00
  N15.10.0E            JUNCTION     0.00     0.00  4210.29     0  00:00        0.00
  N15.10.10E           JUNCTION     0.00     0.00  4209.18     0  00:00        0.00
  N15.8.0              JUNCTION     0.00     0.00  4211.74     0  00:00        0.00
  N16.10.0             JUNCTION     0.00     0.00  4222.02     0  00:00        0.00
  N16.10.0A            JUNCTION     0.00     0.00  4221.24     0  00:00        0.00
  N16.10.2             JUNCTION     0.00     0.00  4222.82     0  00:00        0.00
  N17.10.0             JUNCTION     0.00     0.00  4222.84     0  00:00        0.00
  N17.10.0A            JUNCTION     0.00     0.00  4221.80     0  00:00        0.00
  N17.10.0B            JUNCTION     0.00     0.00  4223.19     0  00:00        0.00
  N17.10.0C            JUNCTION     0.00     0.00  4220.39     0  00:00        0.00
  N17.10.0D            JUNCTION     0.00     0.00  4222.24     0  00:00        0.00
  N17.10.5A            JUNCTION     0.00     0.00  4220.94     0  00:00        0.00
  N17.10.5A1           JUNCTION     0.00     0.00  4219.77     0  00:00        0.00
  N17.10.5B            JUNCTION     0.00     0.00  4221.09     0  00:00        0.00
  N17.10.5B1           JUNCTION     0.00     0.00  4220.99     0  00:00        0.00
  N18.5.0A             JUNCTION     0.00     0.00  4215.80     0  00:00        0.00
  N2.10.0              JUNCTION     0.00     0.00  4330.00     0  00:00        0.00
  N2.10.10             JUNCTION     0.00     0.00  4329.00     0  00:00        0.00
  N2.10.20             JUNCTION     0.00     0.00  4328.50     0  00:00        0.00
  N2.10.30             JUNCTION     0.00     0.00  4327.60     0  00:00        0.00
  N2.10.30A            JUNCTION     0.00     0.00  4324.00     0  00:00        0.00
  N2.10.40             JUNCTION     0.00     0.00  4320.00     0  00:00        0.00
  N2.10.40A            JUNCTION     0.00     0.00  4314.40     0  00:00        0.00
  N2.10.40B            JUNCTION     0.00     0.00  4300.00     0  00:00        0.00
  N3.10.0              JUNCTION     0.00     0.00  4395.50     0  00:00        0.00
  N3.10.100            JUNCTION     0.00     0.00  4241.48     0  00:00        0.00
  N3.10.110            JUNCTION     0.00     0.00  4239.40     0  00:00        0.00
  N3.10.120            JUNCTION     0.00     0.00  4238.00     0  00:00        0.00
  N3.10.120A           JUNCTION     0.00     0.00  4231.82     0  00:00        0.00
  N3.10.122            JUNCTION     0.00     0.00  4239.72     0  00:00        0.00
  N3.10.125            JUNCTION     0.00     0.00  4235.90     0  00:00        0.00
  N3.10.130            JUNCTION     0.00     0.00  4229.13     0  00:00        0.00
  N3.10.130A           JUNCTION     0.00     0.00  4228.48     0  00:00        0.00
  N3.10.130B           JUNCTION     0.00     0.00  4227.81     0  00:00        0.00
  N3.10.135            JUNCTION     0.00     0.00  4227.02     0  00:00        0.00
  N3.10.135A           JUNCTION     0.00     0.00  4226.73     0  00:00        0.00
  N3.10.135B           JUNCTION     0.00     0.00  4225.79     0  00:00        0.00
  N3.10.135C           JUNCTION     0.00     0.00  4225.50     0  00:00        0.00
  N3.10.140            JUNCTION     0.00     0.00  4225.60     0  00:00        0.00
  N3.10.145A           JUNCTION     0.00     0.00  4223.47     0  00:00        0.00
  N3.10.145B           JUNCTION     0.00     0.00  4222.70     0  00:00        0.00
  N3.10.145C           JUNCTION     0.00     0.00  4222.60     0  00:00        0.00
  N3.10.150            JUNCTION     0.00     0.00  4221.80     0  00:00        0.00
  N3.10.150A           JUNCTION     0.00     0.00  4218.80     0  00:00        0.00
  N3.10.150B           JUNCTION     0.00     0.00  4217.72     0  00:00        0.00
  N3.10.150BA          JUNCTION     0.00     0.00  4217.72     0  00:00        0.00
  N3.10.20             JUNCTION     0.00     0.00  4362.00     0  00:00        0.00
  N3.10.20A            JUNCTION     0.00     0.00  4352.80     0  00:00        0.00
  N3.10.30             JUNCTION     0.00     0.00  4341.28     0  00:00        0.00
  N3.10.40             JUNCTION     0.00     0.00  4339.43     0  00:00        0.00
  N3.10.45             JUNCTION     0.00     0.00  4341.00     0  00:00        0.00
  N3.10.45A            JUNCTION     0.00     0.00  4336.00     0  00:00        0.00
  N3.10.70             JUNCTION     0.00     0.00  4289.81     0  00:00        0.00
  N3.10.80             JUNCTION     0.00     0.00  4267.00     0  00:00        0.00
  N3.100.10            JUNCTION     0.00     0.00  4313.00     0  00:00        0.00
  N3.100.2             JUNCTION     0.00     0.00  4333.00     0  00:00        0.00
  N3.100.20            JUNCTION     0.00     0.00  4310.00     0  00:00        0.00
  N3.100.3             JUNCTION     0.00     0.00  4326.27     0  00:00        0.00
  N3.100.30            JUNCTION     0.00     0.00  4303.40     0  00:00        0.00
  N3.100.30A           JUNCTION     0.00     0.00  4302.50     0  00:00        0.00
  N3.100.3A            JUNCTION     0.00     0.00  4322.00     0  00:00        0.00
  N3.100.4             JUNCTION     0.00     0.00  4321.00     0  00:00        0.00
  N3.100.5             JUNCTION     0.00     0.00  4320.00     0  00:00        0.00
  N3.110.0             JUNCTION     0.00     0.00  4308.50     0  00:00        0.00
  N3.110.10            JUNCTION     0.00     0.00  4305.40     0  00:00        0.00
  N3.110.10A           JUNCTION     0.00     0.00  4304.00     0  00:00        0.00
  N3.110.20            JUNCTION     0.00     0.00  4302.90     0  00:00        0.00
  N3.110.20A           JUNCTION     0.00     0.00  4300.60     0  00:00        0.00
  N3.110.40            JUNCTION     0.00     0.00  4300.30     0  00:00        0.00
  N3.110.40A           JUNCTION     0.00     0.00  4300.00     0  00:00        0.00
  N3.120.0             JUNCTION     0.00     0.00  4291.86     0  00:00        0.00
  N3.130.0             JUNCTION     0.00     0.00  4260.00     0  00:00        0.00
  N3.140.0             JUNCTION     0.00     0.00  4246.00     0  00:00        0.00
  N3.140.10            JUNCTION     0.00     0.00  4242.74     0  00:00        0.00
  N3.150.10            JUNCTION     0.00     0.00  4275.00     0  00:00        0.00
  N3.150.20            JUNCTION     0.00     0.00  4257.96     0  00:00        0.00
  N3.160.0             JUNCTION     0.00     0.00  4276.18     0  00:00        0.00
  N3.170.0             JUNCTION     0.00     0.00  4278.06     0  00:00        0.00
  N3.170.15            JUNCTION     0.00     0.00  4233.16     0  00:00        0.00
  N3.170.2             JUNCTION     0.00     0.00  4279.87     0  00:00        0.00
  N3.170.20            JUNCTION     0.00     0.00  4231.95     0  00:00        0.00
  N3.170.2B            JUNCTION     0.00     0.00  4278.18     0  00:00        0.00
  N3.170.5             JUNCTION     0.00     0.00  4265.00     0  00:00        0.00
  N3.177.0A            JUNCTION     0.00     0.00  4245.00     0  00:00        0.00
  N3.180.0             JUNCTION     0.00     0.00  4242.50     0  00:00        0.00
  N3.180.0A            JUNCTION     0.00     0.00  4234.11     0  00:00        0.00
  N3.180.10            JUNCTION     0.00     0.00  4233.17     0  00:00        0.00
  N3.180.10A           JUNCTION     0.00     0.00  4232.76     0  00:00        0.00
  N3.180.10B           JUNCTION     0.00     0.00  4232.68     0  00:00        0.00
  N3.180.10C           JUNCTION     0.00     0.00  4239.00     0  00:00        0.00
  N3.180.7A            JUNCTION     0.00     0.00  4232.59     0  00:00        0.00
  N3.180.7B            JUNCTION     0.00     0.00  4232.43     0  00:00        0.00
  N3.180.7C            JUNCTION     0.00     0.00  4232.30     0  00:00        0.00
  N3.190.0             JUNCTION     0.00     0.00  4235.50     0  00:00        0.00
  N3.190.10            JUNCTION     0.00     0.00  4233.46     0  00:00        0.00
  N3.190.17A           JUNCTION     0.00     0.00  4232.00     0  00:00        0.00
  N3.190.20            JUNCTION     0.00     0.00  4226.80     0  00:00        0.00
  N3.200.0             JUNCTION     0.00     0.00  4234.30     0  00:00        0.00
  N3.210.0             JUNCTION     0.00     0.00  4237.50     0  00:00        0.00
  N3.220.0             JUNCTION     0.00     0.00  4233.00     0  00:00        0.00
  N3.220.10            JUNCTION     0.00     0.00  4224.20     0  00:00        0.00
  N3.30.0              JUNCTION     0.00     0.00  4422.00     0  00:00        0.00
  N3.30.0A             JUNCTION     0.00     0.00  4416.33     0  00:00        0.00
  N3.30.0B             JUNCTION     0.00     0.00  4399.00     0  00:00        0.00
  N3.30.10             JUNCTION     0.00     0.00  4406.00     0  00:00        0.00
  N3.30.15             JUNCTION     0.00     0.00  4380.00     0  00:00        0.00
  N3.30.15A            JUNCTION     0.00     0.00  4364.55     0  00:00        0.00
  N3.50.0              JUNCTION     0.00     0.00  4360.00     0  00:00        0.00
  N3.50.10             JUNCTION     0.00     0.00  4347.00     0  00:00        0.00
  N3.55.0              JUNCTION     0.00     0.00  4366.00     0  00:00        0.00
  N3.60.0              JUNCTION     0.00     0.00  4381.00     0  00:00        0.00
  N3.60.10             JUNCTION     0.00     0.00  4361.00     0  00:00        0.00
  N3.60.20             JUNCTION     0.00     0.00  4358.00     0  00:00        0.00
  N3.60.25             JUNCTION     0.00     0.00  4350.30     0  00:00        0.00
  N3.60.40             JUNCTION     0.00     0.00  4346.00     0  00:00        0.00
  N3.60.40A            JUNCTION     0.00     0.00  4330.50     0  00:00        0.00
  N3.60.5              JUNCTION     0.00     0.00  4375.00     0  00:00        0.00
  N3.60.5.A            JUNCTION     0.00     0.00  4366.00     0  00:00        0.00
  N3.65.0              JUNCTION     0.00     0.00  4359.00     0  00:00        0.00
  N3.90.0              JUNCTION     0.00     0.00  4304.60     0  00:00        0.00
  N3.90.10             JUNCTION     0.00     0.00  4301.24     0  00:00        0.00
  N3.90.20             JUNCTION     0.00     0.00  4300.50     0  00:00        0.00
  N3.95.0              JUNCTION     0.00     0.00  4318.00     0  00:00        0.00
  N3.95.0A             JUNCTION     0.00     0.00  4310.00     0  00:00        0.00
  N3.95.0B             JUNCTION     0.00     0.00  4303.00     0  00:00        0.00
  N4.10.0              JUNCTION     0.00     0.00  4433.50     0  00:00        0.00
  N4.20.0              JUNCTION     0.00     0.00  4388.00     0  00:00        0.00
  N4.20.0A             JUNCTION     0.00     0.00  4383.00     0  00:00        0.00
  N4.20.10             JUNCTION     0.00     0.00  4402.00     0  00:00        0.00
  N4.20.20             JUNCTION     0.00     0.00  4373.00     0  00:00        0.00
  N4.20.25             JUNCTION     0.00     0.00  4355.70     0  00:00        0.00
  N4.20.25A            JUNCTION     0.00     0.00  4348.70     0  00:00        0.00
  N4.20.25B            JUNCTION     0.00     0.00  4344.80     0  00:00        0.00
  N4.20.25C            JUNCTION     0.00     0.00  4340.40     0  00:00        0.00
  N4.20.40             JUNCTION     0.00     0.00  4329.52     0  00:00        0.00
  N4.30.0              JUNCTION     0.00     0.00  4346.00     0  00:00        0.00
  N4.40.0              JUNCTION     0.00     0.00  4338.11     0  00:00        0.00
  N4.40.10             JUNCTION     0.00     0.00  4336.60     0  00:00        0.00
  N5.0.0               JUNCTION     0.00     0.00  4377.00     0  00:00        0.00
  N5.10.0              JUNCTION     0.00     0.00  4337.00     0  00:00        0.00
  N5.10.0A             JUNCTION     0.00     0.00  4315.00     0  00:00        0.00
  N5.10.0B             JUNCTION     0.00     0.00  4305.00     0  00:00        0.00
  N5.10.0C             JUNCTION     0.00     0.00  4301.00     0  00:00        0.00
  N6.10.0              JUNCTION     0.00     0.00  4224.69     0  00:00        0.00
  N6.10.10A            JUNCTION     0.00     0.00  4222.97     0  00:00        0.00
  N6.10.10B            JUNCTION     0.00     0.00  4221.11     0  00:00        0.00
  N7.10.0              JUNCTION     0.00     0.00  4227.50     0  00:00        0.00
  N7.10.10             JUNCTION     0.00     0.00  4225.00     0  00:00        0.00
  N7.10.10A            JUNCTION     0.00     0.00  4217.00     0  00:00        0.00
  N7.10.10B            JUNCTION     0.00     0.00  4216.79     0  00:00        0.00
  N7.10.20             JUNCTION     0.00     0.00  4220.70     0  00:00        0.00
  N7.10.30             JUNCTION     0.00     0.00  4225.48     0  00:00        0.00
  N7.10.30.B           JUNCTION     0.00     0.00  4223.06     0  00:00        0.00
  N7.10.30A            JUNCTION     0.00     0.00  4223.69     0  00:00        0.00
  N7.10.30C            JUNCTION     0.00     0.00  4225.09     0  00:00        0.00
  N7.10.30C1           JUNCTION     0.00     0.00  4224.93     0  00:00        0.00
  N7.10.30C2           JUNCTION     0.00     0.00  4224.84     0  00:00        0.00
  N7.10.30C3           JUNCTION     0.00     0.00  4224.46     0  00:00        0.00
  N7.10.30C4           JUNCTION     0.00     0.00  4224.22     0  00:00        0.00
  N7.10.30C5           JUNCTION     0.00     0.00  4223.76     0  00:00        0.00
  N7.10.30D            JUNCTION     0.00     0.00  4225.65     0  00:00        0.00
  N8.10.0A             JUNCTION     0.00     0.00  4224.00     0  00:00        0.00
  N8.10.10A            JUNCTION     0.00     0.00  4220.00     0  00:00        0.00
  N8.10.20A            JUNCTION     0.00     0.00  4218.00     0  00:00        0.00
  N8.10.30             JUNCTION     0.00     0.00  4216.00     0  00:00        0.00
  N8.10.30A            JUNCTION     0.00     0.00  4214.00     0  00:00        0.00
  N9.10.0              JUNCTION     0.00     0.00  4281.00     0  00:00        0.00
  N9.10.20             JUNCTION     0.00     0.00  4264.00     0  00:00        0.00
  N9.20.0              JUNCTION     0.00     0.00  4267.00     0  00:00        0.00
  NODE152              JUNCTION     0.00     0.00  4219.37     0  00:00        0.00
  NODE193              JUNCTION     0.00     0.00  4232.16     0  00:00        0.00
  N13.10.40D           OUTFALL      0.00     0.00  4212.56     0  00:00        0.00
  N16.8.0A             OUTFALL      0.00     0.00  4210.74     0  00:00        0.00
  N18.10.0             OUTFALL      0.00     0.00  4216.80     0  00:00        0.00
  N8.10.30B            OUTFALL      0.00     0.00  4213.35     0  00:00        0.00
  N9.10.20A            OUTFALL      0.00     0.00  4264.00     0  00:00        0.00
  OFALL-14             OUTFALL      0.00     0.00  4210.44     0  00:00        0.00
  OFALL-16             OUTFALL      0.00     0.00     0.00     0  00:00        0.00
  N1.10.0              STORAGE      0.00     0.00  4265.50     0  00:00        0.00
  N1.10.30             STORAGE      0.00     0.00  4238.00     0  00:00        0.00
  N1.10.40             STORAGE      0.00     0.00  4220.00     0  00:00        0.00
  N1.20.30             STORAGE      0.00     0.00  4231.00     0  00:00        0.00
  N1.20.40             STORAGE      0.00     0.00  4225.00     0  00:00        0.00
  N1.40.10             STORAGE      0.00     0.00  4233.98     0  00:00        0.00
  N1.60.0A             STORAGE      0.00     0.00  4288.16     0  00:00        0.00
  N1.60.0B             STORAGE      0.00     0.00  4288.00     0  00:00        0.00
  N1.60.0C             STORAGE      0.00     0.00  4292.00     0  00:00        0.00
  N10.10.0             STORAGE      0.00     0.00  4214.00     0  00:00        0.00
  N10.10.10            STORAGE      0.00     0.00  4212.24     0  00:00        0.00
  N10.10.5             STORAGE      0.00     0.00  4213.29     0  00:00        0.00
  N13.10.0             STORAGE      0.00     0.00  4238.50     0  00:00        0.00
  N13.10.20            STORAGE      0.00     0.00  4231.38     0  00:00        0.00
  N13.10.30            STORAGE      0.00     0.00  4220.36     0  00:00        0.00
  N13.10.40            STORAGE      0.00     0.00  4217.36     0  00:00        0.00
  N13.10.50            STORAGE      0.00     0.00  4216.50     0  00:00        0.00
  N13.15.0             STORAGE      0.00     0.00  4234.39     0  00:00        0.00
  N13.20.0             STORAGE      0.00     0.00  4233.17     0  00:00        0.00
  N13.35.0             STORAGE      0.00     0.00  4234.00     0  00:00        0.00
  N15.10.0C            STORAGE      0.00     0.00  4210.29     0  00:00        0.00
  N15.7.0              STORAGE      0.00     0.00  4214.00     0  00:00        0.00
  N17.10.5             STORAGE      0.00     0.00  4221.00     0  00:00        0.00
  N18.5.0              STORAGE      0.00     0.00  4216.80     0  00:00        0.00
  N3.10.110A           STORAGE      0.00     0.00  4238.52     0  00:00        0.00
  N3.10.145            STORAGE      0.00     0.00  4224.47     0  00:00        0.00
  N3.10.50             STORAGE      0.00     0.00  4321.50     0  00:00        0.00
  N3.100.0             STORAGE      0.00     0.00  4333.00     0  00:00        0.00
  N3.150.0             STORAGE      0.00     0.00  4290.81     0  00:00        0.00
  N3.150.30            STORAGE      0.00     0.00  4250.00     0  00:00        0.00
  N3.170.2A            STORAGE      0.00     0.00  4279.26     0  00:00        0.00
  N3.175.0             STORAGE      0.00     0.00  4262.00     0  00:00        0.00
  N3.177.0             STORAGE      0.00     0.00  4246.00     0  00:00        0.00
  N3.180.7             STORAGE      0.00     0.00  4243.00     0  00:00        0.00
  N3.190.17            STORAGE      0.00     0.00  4232.50     0  00:00        0.00
  N4.20.40A            STORAGE      0.00     0.00  4327.05     0  00:00        0.00
  N6.10.10             STORAGE      0.00     0.00  4224.00     0  00:00        0.00
  N6.10.5              STORAGE      0.00     0.00  4224.86     0  00:00        0.00
  N7.20.0              STORAGE      0.00     0.00  4227.25     0  00:00        0.00
  N8.10.0              STORAGE      0.00     0.00  4225.00     0  00:00        0.00
  N8.10.10             STORAGE      0.00     0.00  4221.00     0  00:00        0.00
  N8.10.20             STORAGE      0.00     0.00  4219.00     0  00:00        0.00
  
  
  *******************
  Node Inflow Summary
  *******************
  
  -------------------------------------------------------------------------------------------------
                                  Maximum  Maximum                  Lateral       Total        Flow
                                  Lateral    Total  Time of Max      Inflow      Inflow     Balance
                                   Inflow   Inflow   Occurrence      Volume      Volume       Error
  Node                 Type           CFS      CFS  days hr:min    10^6 gal    10^6 gal     Percent
  -------------------------------------------------------------------------------------------------
  N1.10.0A             JUNCTION      0.00     0.00     0  00:00           0           0       0.000 gal
  N1.10.10             JUNCTION      0.00     0.00     0  00:00           0           0       0.000 gal
  N1.10.20             JUNCTION      0.00     0.00     0  00:00           0           0       0.000 gal
  N1.10.30A            JUNCTION      0.00     0.00     0  00:00           0           0       0.000 gal
  N1.10.32             JUNCTION      0.00     0.00     0  00:00           0           0       0.000 gal
  N1.10.35             JUNCTION      0.00     0.00     0  00:00           0           0       0.000 gal
  N1.10.37             JUNCTION      0.00     0.00     0  00:00           0           0       0.000 gal
  N1.10.40A            JUNCTION      0.00     0.00     0  00:00           0           0       0.000 gal
  N1.10.40B            JUNCTION      0.00     0.00     0  00:00           0           0       0.000 gal
  N1.10.5              JUNCTION      0.00     0.00     0  00:00           0           0       0.000 gal
  N1.12.0              JUNCTION      0.00     0.00     0  00:00           0           0       0.000 gal
  N1.20.10             JUNCTION      0.00     0.00     0  00:00           0           0       0.000 gal
  N1.20.20             JUNCTION      0.00     0.00     0  00:00           0           0       0.000 gal
  N1.20.20A            JUNCTION      0.00     0.00     0  00:00           0           0       0.000 gal
  N1.20.30A            JUNCTION      0.00     0.00     0  00:00           0           0       0.000 gal
  N1.20.35             JUNCTION      0.00     0.00     0  00:00           0           0       0.000 gal
  N1.20.40A            JUNCTION      0.00     0.00     0  00:00           0           0       0.000 gal
  N1.20.40B            JUNCTION      0.00     0.00     0  00:00           0           0       0.000 gal
  N1.30.0              JUNCTION      0.00     0.00     0  00:00           0           0       0.000 gal
  N1.30.0A             JUNCTION      0.00     0.00     0  00:00           0           0       0.000 gal
  N1.30.20             JUNCTION      0.00     0.00     0  00:00           0           0       0.000 gal
  N1.30.20A            JUNCTION      0.00     0.00     0  00:00           0           0       0.000 gal
  N1.40.0              JUNCTION      0.00     0.00     0  00:00           0           0       0.000 gal
  N1.40.10A            JUNCTION      0.00     0.00     0  00:00           0           0       0.000 gal
  N1.50.0              JUNCTION      0.00     0.00     0  00:00           0           0       0.000 gal
  N1.50.10             JUNCTION      0.00     0.00     0  00:00           0           0       0.000 gal
  N1.50.20             JUNCTION      0.00     0.00     0  00:00           0           0       0.000 gal
  N1.50.20B            JUNCTION      0.00     0.00     0  00:00           0           0       0.000 gal
  N1.50.40             JUNCTION      0.00     0.00     0  00:00           0           0       0.000 gal
  N1.50.40A            JUNCTION      0.00     0.00     0  00:00           0           0       0.000 gal
  N1.50.42             JUNCTION      0.00     0.00     0  00:00           0           0       0.000 gal
  N1.50.45             JUNCTION      0.00     0.00     0  00:00           0           0       0.000 gal
  N1.50.50             JUNCTION      0.00     0.00     0  00:00           0           0       0.000 gal
  N1.50.55             JUNCTION      0.00     0.00     0  00:00           0           0       0.000 gal
  N1.50.65             JUNCTION      0.00     0.00     0  00:00           0           0       0.000 gal
  N1.60.0              JUNCTION      0.00     0.00     0  00:00           0           0       0.000 gal
  N1.60.0A1            JUNCTION      0.00     0.00     0  00:00           0           0       0.000 gal
  N1.60.0B1            JUNCTION      0.00     0.00     0  00:00           0           0       0.000 gal
  N1.60.30             JUNCTION      0.00     0.00     0  00:00           0           0       0.000 gal
  N1.60.30A            JUNCTION      0.00     0.00     0  00:00           0           0       0.000 gal
  N1.70.0              JUNCTION      0.00     0.00     0  00:00           0           0       0.000 gal
  N1.70.10             JUNCTION      0.00     0.00     0  00:00           0           0       0.000 gal
  N1.70.10A            JUNCTION      0.00     0.00     0  00:00           0           0       0.000 gal
  N1.80.0              JUNCTION      0.00     0.00     0  00:00           0           0       0.000 gal
  N10.10.0A            JUNCTION      0.00     0.00     0  00:00           0           0       0.000 gal
  N10.10.10A           JUNCTION      0.00     0.00     0  00:00           0           0       0.000 gal
  N10.10.10B           JUNCTION      0.00     0.00     0  00:00           0           0       0.000 gal
  N10.10.5A            JUNCTION      0.00     0.00     0  00:00           0           0       0.000 gal
  N10.5.0              JUNCTION      0.00     0.00     0  00:00           0           0       0.000 gal
  N11.10.0             JUNCTION      0.00     0.00     0  00:00           0           0       0.000 gal
  N11.10.10            JUNCTION      0.00     0.00     0  00:00           0           0       0.000 gal
  N13.10.0A            JUNCTION      0.00     0.00     0  00:00           0           0       0.000 gal
  N13.10.0B            JUNCTION      0.00     0.00     0  00:00           0           0       0.000 gal
  N13.10.0C            JUNCTION      0.00     0.00     0  00:00           0           0       0.000 gal
  N13.10.0D            JUNCTION      0.00     0.00     0  00:00           0           0       0.000 gal
  N13.10.20A           JUNCTION      0.00     0.00     0  00:00           0           0       0.000 gal
  N13.10.25            JUNCTION      0.00     0.00     0  00:00           0           0       0.000 gal
  N13.10.30A           JUNCTION      0.00     0.00     0  00:00           0           0       0.000 gal
  N13.10.30B           JUNCTION      0.00     0.00     0  00:00           0           0       0.000 gal
  N13.10.40A           JUNCTION      0.00     0.00     0  00:00           0           0       0.000 gal
  N13.10.40B           JUNCTION      0.00     0.00     0  00:00           0           0       0.000 gal
  N13.10.40C           JUNCTION      0.00     0.00     0  00:00           0           0       0.000 gal
  N13.35.0A            JUNCTION      0.00     0.00     0  00:00           0           0       0.000 gal
  N13.35.10            JUNCTION      0.00     0.00     0  00:00           0           0       0.000 gal
  N13.35.20            JUNCTION      0.00     0.00     0  00:00           0           0       0.000 gal
  N14.10.0             JUNCTION      0.00     0.00     0  00:00           0           0       0.000 gal
  N15.10.0             JUNCTION      0.00     0.00     0  00:00           0           0       0.000 gal
  N15.10.0B            JUNCTION      0.00     0.00     0  00:00           0           0       0.000 gal
  N15.10.0D            JUNCTION      0.00     0.00     0  00:00           0           0       0.000 gal
  N15.10.0E            JUNCTION      0.00     0.00     0  00:00           0           0       0.000 gal
  N15.10.10E           JUNCTION      0.00     0.00     0  00:00           0           0       0.000 gal
  N15.8.0              JUNCTION      0.00     0.00     0  00:00           0           0       0.000 gal
  N16.10.0             JUNCTION      0.00     0.00     0  00:00           0           0       0.000 gal
  N16.10.0A            JUNCTION      0.00     0.00     0  00:00           0           0       0.000 gal
  N16.10.2             JUNCTION      0.00     0.00     0  00:00           0           0       0.000 gal
  N17.10.0             JUNCTION      0.00     0.00     0  00:00           0           0       0.000 gal
  N17.10.0A            JUNCTION      0.00     0.00     0  00:00           0           0       0.000 gal
  N17.10.0B            JUNCTION      0.00     0.00     0  00:00           0           0       0.000 gal
  N17.10.0C            JUNCTION      0.00     0.00     0  00:00           0           0       0.000 gal
  N17.10.0D            JUNCTION      0.00     0.00     0  00:00           0           0       0.000 gal
  N17.10.5A            JUNCTION      0.00     0.00     0  00:00           0           0       0.000 gal
  N17.10.5A1           JUNCTION      0.00     0.00     0  00:00           0           0       0.000 gal
  N17.10.5B            JUNCTION      0.00     0.00     0  00:00           0           0       0.000 gal
  N17.10.5B1           JUNCTION      0.00     0.00     0  00:00           0           0       0.000 gal
  N18.5.0A             JUNCTION      0.00     0.00     0  00:00           0           0       0.000 gal
  N2.10.0              JUNCTION      0.00     0.00     0  00:00           0           0       0.000 gal
  N2.10.10             JUNCTION      0.00     0.00     0  00:00           0           0       0.000 gal
  N2.10.20             JUNCTION      0.00     0.00     0  00:00           0           0       0.000 gal
  N2.10.30             JUNCTION      0.00     0.00     0  00:00           0           0       0.000 gal
  N2.10.30A            JUNCTION      0.00     0.00     0  00:00           0           0       0.000 gal
  N2.10.40             JUNCTION      0.00     0.00     0  00:00           0           0       0.000 gal
  N2.10.40A            JUNCTION      0.00     0.00     0  00:00           0           0       0.000 gal
  N2.10.40B            JUNCTION      0.00     0.00     0  00:00           0           0       0.000 gal
  N3.10.0              JUNCTION      0.00     0.00     0  00:00           0           0       0.000 gal
  N3.10.100            JUNCTION      0.00     0.00     0  00:00           0           0       0.000 gal
  N3.10.110            JUNCTION      0.00     0.00     0  00:00           0           0       0.000 gal
  N3.10.120            JUNCTION      0.00     0.00     0  00:00           0           0       0.000 gal
  N3.10.120A           JUNCTION      0.00     0.00     0  00:00           0           0       0.000 gal
  N3.10.122            JUNCTION      0.00     0.00     0  00:00           0           0       0.000 gal
  N3.10.125            JUNCTION      0.00     0.00     0  00:00           0           0       0.000 gal
  N3.10.130            JUNCTION      0.00     0.00     0  00:00           0           0       0.000 gal
  N3.10.130A           JUNCTION      0.00     0.00     0  00:00           0           0       0.000 gal
  N3.10.130B           JUNCTION      0.00     0.00     0  00:00           0           0       0.000 gal
  N3.10.135            JUNCTION      0.00     0.00     0  00:00           0           0       0.000 gal
  N3.10.135A           JUNCTION      0.00     0.00     0  00:00           0           0       0.000 gal
  N3.10.135B           JUNCTION      0.00     0.00     0  00:00           0           0       0.000 gal
  N3.10.135C           JUNCTION      0.00     0.00     0  00:00           0           0       0.000 gal
  N3.10.140            JUNCTION      0.00     0.00     0  00:00           0           0       0.000 gal
  N3.10.145A           JUNCTION      0.00     0.00     0  00:00           0           0       0.000 gal
  N3.10.145B           JUNCTION      0.00     0.00     0  00:00           0           0       0.000 gal
  N3.10.145C           JUNCTION      0.00     0.00     0  00:00           0           0       0.000 gal
  N3.10.150            JUNCTION      0.00     0.00     0  00:00           0           0       0.000 gal
  N3.10.150A           JUNCTION      0.00     0.00     0  00:00           0           0       0.000 gal
  N3.10.150B           JUNCTION      0.00     0.00     0  00:00           0           0       0.000 gal
  N3.10.150BA          JUNCTION      0.00     0.00     0  00:00           0           0       0.000 gal
  N3.10.20             JUNCTION      0.00     0.00     0  00:00           0           0       0.000 gal
  N3.10.20A            JUNCTION      0.00     0.00     0  00:00           0           0       0.000 gal
  N3.10.30             JUNCTION      0.00     0.00     0  00:00           0           0       0.000 gal
  N3.10.40             JUNCTION      0.00     0.00     0  00:00           0           0       0.000 gal
  N3.10.45             JUNCTION      0.00     0.00     0  00:00           0           0       0.000 gal
  N3.10.45A            JUNCTION      0.00     0.00     0  00:00           0           0       0.000 gal
  N3.10.70             JUNCTION      0.00     0.00     0  00:00           0           0       0.000 gal
  N3.10.80             JUNCTION      0.00     0.00     0  00:00           0           0       0.000 gal
  N3.100.10            JUNCTION      0.00     0.00     0  00:00           0           0       0.000 gal
  N3.100.2             JUNCTION      0.00     0.00     0  00:00           0           0       0.000 gal
  N3.100.20            JUNCTION      0.00     0.00     0  00:00           0           0       0.000 gal
  N3.100.3             JUNCTION      0.00     0.00     0  00:00           0           0       0.000 gal
  N3.100.30            JUNCTION      0.00     0.00     0  00:00           0           0       0.000 gal
  N3.100.30A           JUNCTION      0.00     0.00     0  00:00           0           0       0.000 gal
  N3.100.3A            JUNCTION      0.00     0.00     0  00:00           0           0       0.000 gal
  N3.100.4             JUNCTION      0.00     0.00     0  00:00           0           0       0.000 gal
  N3.100.5             JUNCTION      0.00     0.00     0  00:00           0           0       0.000 gal
  N3.110.0             JUNCTION      0.00     0.00     0  00:00           0           0       0.000 gal
  N3.110.10            JUNCTION      0.00     0.00     0  00:00           0           0       0.000 gal
  N3.110.10A           JUNCTION      0.00     0.00     0  00:00           0           0       0.000 gal
  N3.110.20            JUNCTION      0.00     0.00     0  00:00           0           0       0.000 gal
  N3.110.20A           JUNCTION      0.00     0.00     0  00:00           0           0       0.000 gal
  N3.110.40            JUNCTION      0.00     0.00     0  00:00           0           0       0.000 gal
  N3.110.40A           JUNCTION      0.00     0.00     0  00:00           0           0       0.000 gal
  N3.120.0             JUNCTION      0.00     0.00     0  00:00           0           0       0.000 gal
  N3.130.0             JUNCTION      0.00     0.00     0  00:00           0           0       0.000 gal
  N3.140.0             JUNCTION      0.00     0.00     0  00:00           0           0       0.000 gal
  N3.140.10            JUNCTION      0.00     0.00     0  00:00           0           0       0.000 gal
  N3.150.10            JUNCTION      0.00     0.00     0  00:00           0           0       0.000 gal
  N3.150.20            JUNCTION      0.00     0.00     0  00:00           0           0       0.000 gal
  N3.160.0             JUNCTION      0.00     0.00     0  00:00           0           0       0.000 gal
  N3.170.0             JUNCTION      0.00     0.00     0  00:00           0           0       0.000 gal
  N3.170.15            JUNCTION      0.00     0.00     0  00:00           0           0       0.000 gal
  N3.170.2             JUNCTION      0.00     0.00     0  00:00           0           0       0.000 gal
  N3.170.20            JUNCTION      0.00     0.00     0  00:00           0           0       0.000 gal
  N3.170.2B            JUNCTION      0.00     0.00     0  00:00           0           0       0.000 gal
  N3.170.5             JUNCTION      0.00     0.00     0  00:00           0           0       0.000 gal
  N3.177.0A            JUNCTION      0.00     0.00     0  00:00           0           0       0.000 gal
  N3.180.0             JUNCTION      0.00     0.00     0  00:00           0           0       0.000 gal
  N3.180.0A            JUNCTION      0.00     0.00     0  00:00           0           0       0.000 gal
  N3.180.10            JUNCTION      0.00     0.00     0  00:00           0           0       0.000 gal
  N3.180.10A           JUNCTION      0.00     0.00     0  00:00           0           0       0.000 gal
  N3.180.10B           JUNCTION      0.00     0.00     0  00:00           0           0       0.000 gal
  N3.180.10C           JUNCTION      0.00     0.00     0  00:00           0           0       0.000 gal
  N3.180.7A            JUNCTION      0.00     0.00     0  00:00           0           0       0.000 gal
  N3.180.7B            JUNCTION      0.00     0.00     0  00:00           0           0       0.000 gal
  N3.180.7C            JUNCTION      0.00     0.00     0  00:00           0           0       0.000 gal
  N3.190.0             JUNCTION      0.00     0.00     0  00:00           0           0       0.000 gal
  N3.190.10            JUNCTION      0.00     0.00     0  00:00           0           0       0.000 gal
  N3.190.17A           JUNCTION      0.00     0.00     0  00:00           0           0       0.000 gal
  N3.190.20            JUNCTION      0.00     0.00     0  00:00           0           0       0.000 gal
  N3.200.0             JUNCTION      0.00     0.00     0  00:00           0           0       0.000 gal
  N3.210.0             JUNCTION      0.00     0.00     0  00:00           0           0       0.000 gal
  N3.220.0             JUNCTION      0.00     0.00     0  00:00           0           0       0.000 gal
  N3.220.10            JUNCTION      0.00     0.00     0  00:00           0           0       0.000 gal
  N3.30.0              JUNCTION      0.00     0.00     0  00:00           0           0       0.000 gal
  N3.30.0A             JUNCTION      0.00     0.00     0  00:00           0           0       0.000 gal
  N3.30.0B             JUNCTION      0.00     0.00     0  00:00           0           0       0.000 gal
  N3.30.10             JUNCTION      0.00     0.00     0  00:00           0           0       0.000 gal
  N3.30.15             JUNCTION      0.00     0.00     0  00:00           0           0       0.000 gal
  N3.30.15A            JUNCTION      0.00     0.00     0  00:00           0           0       0.000 gal
  N3.50.0              JUNCTION      0.00     0.00     0  00:00           0           0       0.000 gal
  N3.50.10             JUNCTION      0.00     0.00     0  00:00           0           0       0.000 gal
  N3.55.0              JUNCTION      0.00     0.00     0  00:00           0           0       0.000 gal
  N3.60.0              JUNCTION      0.00     0.00     0  00:00           0           0       0.000 gal
  N3.60.10             JUNCTION      0.00     0.00     0  00:00           0           0       0.000 gal
  N3.60.20             JUNCTION      0.00     0.00     0  00:00           0           0       0.000 gal
  N3.60.25             JUNCTION      0.00     0.00     0  00:00           0           0       0.000 gal
  N3.60.40             JUNCTION      0.00     0.00     0  00:00           0           0       0.000 gal
  N3.60.40A            JUNCTION      0.00     0.00     0  00:00           0           0       0.000 gal
  N3.60.5              JUNCTION      0.00     0.00     0  00:00           0           0       0.000 gal
  N3.60.5.A            JUNCTION      0.00     0.00     0  00:00           0           0       0.000 gal
  N3.65.0              JUNCTION      0.00     0.00     0  00:00           0           0       0.000 gal
  N3.90.0              JUNCTION      0.00     0.00     0  00:00           0           0       0.000 gal
  N3.90.10             JUNCTION      0.00     0.00     0  00:00           0           0       0.000 gal
  N3.90.20             JUNCTION      0.00     0.00     0  00:00           0           0       0.000 gal
  N3.95.0              JUNCTION      0.00     0.00     0  00:00           0           0       0.000 gal
  N3.95.0A             JUNCTION      0.00     0.00     0  00:00           0           0       0.000 gal
  N3.95.0B             JUNCTION      0.00     0.00     0  00:00           0           0       0.000 gal
  N4.10.0              JUNCTION      0.00     0.00     0  00:00           0           0       0.000 gal
  N4.20.0              JUNCTION      0.00     0.00     0  00:00           0           0       0.000 gal
  N4.20.0A             JUNCTION      0.00     0.00     0  00:00           0           0       0.000 gal
  N4.20.10             JUNCTION      0.00     0.00     0  00:00           0           0       0.000 gal
  N4.20.20             JUNCTION      0.00     0.00     0  00:00           0           0       0.000 gal
  N4.20.25             JUNCTION      0.00     0.00     0  00:00           0           0       0.000 gal
  N4.20.25A            JUNCTION      0.00     0.00     0  00:00           0           0       0.000 gal
  N4.20.25B            JUNCTION      0.00     0.00     0  00:00           0           0       0.000 gal
  N4.20.25C            JUNCTION      0.00     0.00     0  00:00           0           0       0.000 gal
  N4.20.40             JUNCTION      0.00     0.00     0  00:00           0           0       0.000 gal
  N4.30.0              JUNCTION      0.00     0.00     0  00:00           0           0       0.000 gal
  N4.40.0              JUNCTION      0.00     0.00     0  00:00           0           0       0.000 gal
  N4.40.10             JUNCTION      0.00     0.00     0  00:00           0           0       0.000 gal
  N5.0.0               JUNCTION      0.00     0.00     0  00:00           0           0       0.000 gal
  N5.10.0              JUNCTION      0.00     0.00     0  00:00           0           0       0.000 gal
  N5.10.0A             JUNCTION      0.00     0.00     0  00:00           0           0       0.000 gal
  N5.10.0B             JUNCTION      0.00     0.00     0  00:00           0           0       0.000 gal
  N5.10.0C             JUNCTION      0.00     0.00     0  00:00           0           0       0.000 gal
  N6.10.0              JUNCTION      0.00     0.00     0  00:00           0           0       0.000 gal
  N6.10.10A            JUNCTION      0.00     0.00     0  00:00           0           0       0.000 gal
  N6.10.10B            JUNCTION      0.00     0.00     0  00:00           0           0       0.000 gal
  N7.10.0              JUNCTION      0.00     0.00     0  00:00           0           0       0.000 gal
  N7.10.10             JUNCTION      0.00     0.00     0  00:00           0           0       0.000 gal
  N7.10.10A            JUNCTION      0.00     0.00     0  00:00           0           0       0.000 gal
  N7.10.10B            JUNCTION      0.00     0.00     0  00:00           0           0       0.000 gal
  N7.10.20             JUNCTION      0.00     0.00     0  00:00           0           0       0.000 gal
  N7.10.30             JUNCTION      0.00     0.00     0  00:00           0           0       0.000 gal
  N7.10.30.B           JUNCTION      0.00     0.00     0  00:00           0           0       0.000 gal
  N7.10.30A            JUNCTION      0.00     0.00     0  00:00           0           0       0.000 gal
  N7.10.30C            JUNCTION      0.00     0.00     0  00:00           0           0       0.000 gal
  N7.10.30C1           JUNCTION      0.00     0.00     0  00:00           0           0       0.000 gal
  N7.10.30C2           JUNCTION      0.00     0.00     0  00:00           0           0       0.000 gal
  N7.10.30C3           JUNCTION      0.00     0.00     0  00:00           0           0       0.000 gal
  N7.10.30C4           JUNCTION      0.00     0.00     0  00:00           0           0       0.000 gal
  N7.10.30C5           JUNCTION      0.00     0.00     0  00:00           0           0       0.000 gal
  N7.10.30D            JUNCTION      0.00     0.00     0  00:00           0           0       0.000 gal
  N8.10.0A             JUNCTION      0.00     0.00     0  00:00           0           0       0.000 gal
  N8.10.10A            JUNCTION      0.00     0.00     0  00:00           0           0       0.000 gal
  N8.10.20A            JUNCTION      0.00     0.00     0  00:00           0           0       0.000 gal
  N8.10.30             JUNCTION      0.00     0.00     0  00:00           0           0       0.000 gal
  N8.10.30A            JUNCTION      0.00     0.00     0  00:00           0           0       0.000 gal
  N9.10.0              JUNCTION      0.00     0.00     0  00:00           0           0       0.000 gal
  N9.10.20             JUNCTION      0.00     0.00     0  00:00           0           0       0.000 gal
  N9.20.0              JUNCTION      0.00     0.00     0  00:00           0           0       0.000 gal
  NODE152              JUNCTION      0.00     0.00     0  00:00           0           0       0.000 gal
  NODE193              JUNCTION      0.00     0.00     0  00:00           0           0       0.000 gal
  N13.10.40D           OUTFALL       0.00     0.00     0  00:00           0           0       0.000 gal
  N16.8.0A             OUTFALL       0.00     0.00     0  00:00           0           0       0.000 gal
  N18.10.0             OUTFALL       0.00     0.00     0  00:00           0           0       0.000 gal
  N8.10.30B            OUTFALL       0.00     0.00     0  00:00           0           0       0.000 gal
  N9.10.20A            OUTFALL       0.00     0.00     0  00:00           0           0       0.000 gal
[...]
  L13.10.25               1.00   1.00  0.00  0.00  0.00  0.00  0.00  0.00  0.00  0.00
  L13.10.30               1.00   1.00  0.00  0.00  0.00  0.00  0.00  0.00  0.00  0.00
  L13.10.30A              1.00   1.00  0.00  0.00  0.00  0.00  0.00  0.00  0.00  0.00
  L13.10.30B              1.00   1.00  0.00  0.00  0.00  0.00  0.00  0.00  0.00  0.00
  L13.10.40               1.00   1.00  0.00  0.00  0.00  0.00  0.00  0.00  0.00  0.00
  L13.10.40A              1.00   1.00  0.00  0.00  0.00  0.00  0.00  0.00  0.00  0.00
  L13.10.40B              1.00   1.00  0.00  0.00  0.00  0.00  0.00  0.00  0.00  0.00
  L13.10.40C              3.00   1.00  0.00  0.00  0.00  0.00  0.00  0.00  0.00  0.00
  L13.10.40D              1.00   1.00  0.00  0.00  0.00  0.00  0.00  0.00  0.00  0.00
  L13.10.50               1.00   1.00  0.00  0.00  0.00  0.00  0.00  0.00  0.00  0.00
  L13.15.0                1.00   1.00  0.00  0.00  0.00  0.00  0.00  0.00  0.00  0.00
  L13.20.0                1.00   1.00  0.00  0.00  0.00  0.00  0.00  0.00  0.00  0.00
  L13.35.0                1.00   1.00  0.00  0.00  0.00  0.00  0.00  0.00  0.00  0.00
  L13.35.0A               1.00   1.00  0.00  0.00  0.00  0.00  0.00  0.00  0.00  0.00
  L13.35.10               1.00   1.00  0.00  0.00  0.00  0.00  0.00  0.00  0.00  0.00
  L13.35.20               1.00   1.00  0.00  0.00  0.00  0.00  0.00  0.00  0.00  0.00
  L15.10.0                1.00   1.00  0.00  0.00  0.00  0.00  0.00  0.00  0.00  0.00
  L15.10.0B               1.00   1.00  0.00  0.00  0.00  0.00  0.00  0.00  0.00  0.00
  L15.10.0C               1.00   1.00  0.00  0.00  0.00  0.00  0.00  0.00  0.00  0.00
  L15.10.0E               1.00   1.00  0.00  0.00  0.00  0.00  0.00  0.00  0.00  0.00
  L15.7.0                 1.00   1.00  0.00  0.00  0.00  0.00  0.00  0.00  0.00  0.00
  L15.8.0                 1.00   1.00  0.00  0.00  0.00  0.00  0.00  0.00  0.00  0.00
  L16.10.0                1.00   1.00  0.00  0.00  0.00  0.00  0.00  0.00  0.00  0.00
  L16.10.0A               6.20   1.00  0.00  0.00  0.00  0.00  0.00  0.00  0.00  0.00
  L16.10.2                1.00   1.00  0.00  0.00  0.00  0.00  0.00  0.00  0.00  0.00
  L17.10.0                1.00   1.00  0.00  0.00  0.00  0.00  0.00  0.00  0.00  0.00
  L17.10.0A               1.00   1.00  0.00  0.00  0.00  0.00  0.00  0.00  0.00  0.00
  L17.10.0B               1.00   1.00  0.00  0.00  0.00  0.00  0.00  0.00  0.00  0.00
  L17.10.0C               1.00   1.00  0.00  0.00  0.00  0.00  0.00  0.00  0.00  0.00
  L17.10.0D               1.00   1.00  0.00  0.00  0.00  0.00  0.00  0.00  0.00  0.00
  L17.10.5                1.00   1.00  0.00  0.00  0.00  0.00  0.00  0.00  0.00  0.00
  L17.10.5A               2.10   1.00  0.00  0.00  0.00  0.00  0.00  0.00  0.00  0.00
  L17.10.5A1              1.00   1.00  0.00  0.00  0.00  0.00  0.00  0.00  0.00  0.00
  L17.10.5B               1.00   1.00  0.00  0.00  0.00  0.00  0.00  0.00  0.00  0.00
  L17.10.5B1              1.00   1.00  0.00  0.00  0.00  0.00  0.00  0.00  0.00  0.00
  L18.10.0                1.00   1.00  0.00  0.00  0.00  0.00  0.00  0.00  0.00  0.00
  L18.5.0                 1.00   1.00  0.00  0.00  0.00  0.00  0.00  0.00  0.00  0.00
  L18.5.0A                1.00   1.00  0.00  0.00  0.00  0.00  0.00  0.00  0.00  0.00
  L2.10.0                 1.00   1.00  0.00  0.00  0.00  0.00  0.00  0.00  0.00  0.00
  L2.10.10                1.00   1.00  0.00  0.00  0.00  0.00  0.00  0.00  0.00  0.00
  L2.10.20                1.00   1.00  0.00  0.00  0.00  0.00  0.00  0.00  0.00  0.00
  L2.10.30                1.24   1.00  0.00  0.00  0.00  0.00  0.00  0.00  0.00  0.00
  L2.10.30A               1.00   1.00  0.00  0.00  0.00  0.00  0.00  0.00  0.00  0.00
  L2.10.40                1.00   1.00  0.00  0.00  0.00  0.00  0.00  0.00  0.00  0.00
  L2.10.40A               1.00   1.00  0.00  0.00  0.00  0.00  0.00  0.00  0.00  0.00
  L3.10.0                 1.00   1.00  0.00  0.00  0.00  0.00  0.00  0.00  0.00  0.00
  L3.10.100               1.00   1.00  0.00  0.00  0.00  0.00  0.00  0.00  0.00  0.00
  L3.10.110               1.00   1.00  0.00  0.00  0.00  0.00  0.00  0.00  0.00  0.00
  L3.10.110A              1.00   1.00  0.00  0.00  0.00  0.00  0.00  0.00  0.00  0.00
  L3.10.120               1.00   1.00  0.00  0.00  0.00  0.00  0.00  0.00  0.00  0.00
  L3.10.120A              1.00   1.00  0.00  0.00  0.00  0.00  0.00  0.00  0.00  0.00
  L3.10.122               2.17   1.00  0.00  0.00  0.00  0.00  0.00  0.00  0.00  0.00
  L3.10.125               1.00   1.00  0.00  0.00  0.00  0.00  0.00  0.00  0.00  0.00
  L3.10.130               1.00   1.00  0.00  0.00  0.00  0.00  0.00  0.00  0.00  0.00
  L3.10.130A              1.00   1.00  0.00  0.00  0.00  0.00  0.00  0.00  0.00  0.00
  L3.10.130B              1.00   1.00  0.00  0.00  0.00  0.00  0.00  0.00  0.00  0.00
  L3.10.135               1.57   1.00  0.00  0.00  0.00  0.00  0.00  0.00  0.00  0.00
  L3.10.135A              1.00   1.00  0.00  0.00  0.00  0.00  0.00  0.00  0.00  0.00
  L3.10.135B              1.38   1.00  0.00  0.00  0.00  0.00  0.00  0.00  0.00  0.00
  L3.10.135C              1.00   1.00  0.00  0.00  0.00  0.00  0.00  0.00  0.00  0.00
  L3.10.140               1.36   1.00  0.00  0.00  0.00  0.00  0.00  0.00  0.00  0.00
  L3.10.145               1.28   1.00  0.00  0.00  0.00  0.00  0.00  0.00  0.00  0.00
  L3.10.145A              1.00   1.00  0.00  0.00  0.00  0.00  0.00  0.00  0.00  0.00
  L3.10.145B              1.00   1.00  0.00  0.00  0.00  0.00  0.00  0.00  0.00  0.00
  L3.10.145C              1.77   1.00  0.00  0.00  0.00  0.00  0.00  0.00  0.00  0.00
  L3.10.150               1.00   1.00  0.00  0.00  0.00  0.00  0.00  0.00  0.00  0.00
  L3.10.150A              2.24   1.00  0.00  0.00  0.00  0.00  0.00  0.00  0.00  0.00
  L3.10.150B              1.00   1.00  0.00  0.00  0.00  0.00  0.00  0.00  0.00  0.00
  L3.10.150B2             1.00   1.00  0.00  0.00  0.00  0.00  0.00  0.00  0.00  0.00
  L3.10.150D              1.00   1.00  0.00  0.00  0.00  0.00  0.00  0.00  0.00  0.00
  L3.10.20                1.00   1.00  0.00  0.00  0.00  0.00  0.00  0.00  0.00  0.00
  L3.10.20A               1.00   1.00  0.00  0.00  0.00  0.00  0.00  0.00  0.00  0.00
  L3.10.30                1.00   1.00  0.00  0.00  0.00  0.00  0.00  0.00  0.00  0.00
  L3.10.45                3.88   1.00  0.00  0.00  0.00  0.00  0.00  0.00  0.00  0.00
  L3.10.45A               1.00   1.00  0.00  0.00  0.00  0.00  0.00  0.00  0.00  0.00
  L3.10.50                1.20   1.00  0.00  0.00  0.00  0.00  0.00  0.00  0.00  0.00
  L3.10.70                1.00   1.00  0.00  0.00  0.00  0.00  0.00  0.00  0.00  0.00
  L3.10.80                1.00   1.00  0.00  0.00  0.00  0.00  0.00  0.00  0.00  0.00
  L3.100.10               1.00   1.00  0.00  0.00  0.00  0.00  0.00  0.00  0.00  0.00
  L3.100.2                1.00   1.00  0.00  0.00  0.00  0.00  0.00  0.00  0.00  0.00
  L3.100.20               1.00   1.00  0.00  0.00  0.00  0.00  0.00  0.00  0.00  0.00
  L3.100.3                1.00   1.00  0.00  0.00  0.00  0.00  0.00  0.00  0.00  0.00
  L3.100.30               1.12   1.00  0.00  0.00  0.00  0.00  0.00  0.00  0.00  0.00
  L3.100.30A             10.11   1.00  0.00  0.00  0.00  0.00  0.00  0.00  0.00  0.00
  L3.100.3A               1.00   1.00  0.00  0.00  0.00  0.00  0.00  0.00  0.00  0.00
  L3.100.4                1.00   1.00  0.00  0.00  0.00  0.00  0.00  0.00  0.00  0.00
  L3.100.5                1.19   1.00  0.00  0.00  0.00  0.00  0.00  0.00  0.00  0.00
  L3.110.0                1.00   1.00  0.00  0.00  0.00  0.00  0.00  0.00  0.00  0.00
  L3.110.10               1.00   1.00  0.00  0.00  0.00  0.00  0.00  0.00  0.00  0.00
  L3.110.10A              1.00   1.00  0.00  0.00  0.00  0.00  0.00  0.00  0.00  0.00
  L3.110.20               1.00   1.00  0.00  0.00  0.00  0.00  0.00  0.00  0.00  0.00
  L3.110.20A              1.15   1.00  0.00  0.00  0.00  0.00  0.00  0.00  0.00  0.00
  L3.110.40               2.77   1.00  0.00  0.00  0.00  0.00  0.00  0.00  0.00  0.00
  L3.110.40A              1.00   1.00  0.00  0.00  0.00  0.00  0.00  0.00  0.00  0.00
  L3.120.0                1.00   1.00  0.00  0.00  0.00  0.00  0.00  0.00  0.00  0.00
  L3.130.0                1.00   1.00  0.00  0.00  0.00  0.00  0.00  0.00  0.00  0.00
  L3.140.0                1.00   1.00  0.00  0.00  0.00  0.00  0.00  0.00  0.00  0.00
  L3.140.10               1.00   1.00  0.00  0.00  0.00  0.00  0.00  0.00  0.00  0.00
  L3.150.0                1.00   1.00  0.00  0.00  0.00  0.00  0.00  0.00  0.00  0.00
  L3.150.10               1.00   1.00  0.00  0.00  0.00  0.00  0.00  0.00  0.00  0.00
  L3.150.20               1.00   1.00  0.00  0.00  0.00  0.00  0.00  0.00  0.00  0.00
  L3.150.30               1.00   1.00  0.00  0.00  0.00  0.00  0.00  0.00  0.00  0.00
  L3.160.0                1.00   1.00  0.00  0.00  0.00  0.00  0.00  0.00  0.00  0.00
  L3.170.0                1.00   1.00  0.00  0.00  0.00  0.00  0.00  0.00  0.00  0.00
  L3.170.15               1.00   1.00  0.00  0.00  0.00  0.00  0.00  0.00  0.00  0.00
  L3.170.15A              1.00   1.00  0.00  0.00  0.00  0.00  0.00  0.00  0.00  0.00
  L3.170.2                1.40   1.00  0.00  0.00  0.00  0.00  0.00  0.00  0.00  0.00
  L3.170.20               1.00   1.00  0.00  0.00  0.00  0.00  0.00  0.00  0.00  0.00
  L3.170.2B               1.70   1.00  0.00  0.00  0.00  0.00  0.00  0.00  0.00  0.00
  L3.170.5                1.14   1.00  0.00  0.00  0.00  0.00  0.00  0.00  0.00  0.00
  L3.175.0                1.00   1.00  0.00  0.00  0.00  0.00  0.00  0.00  0.00  0.00
  L3.177.0                1.30   1.00  0.00  0.00  0.00  0.00  0.00  0.00  0.00  0.00
  L3.177.0A               1.00   1.00  0.00  0.00  0.00  0.00  0.00  0.00  0.00  0.00
  L3.180.0                1.00   1.00  0.00  0.00  0.00  0.00  0.00  0.00  0.00  0.00
  L3.180.0A               1.00   1.00  0.00  0.00  0.00  0.00  0.00  0.00  0.00  0.00
  L3.180.10               1.83   1.00  0.00  0.00  0.00  0.00  0.00  0.00  0.00  0.00
  L3.180.10A              1.00   1.00  0.00  0.00  0.00  0.00  0.00  0.00  0.00  0.00
  L3.180.10B              1.00   1.00  0.00  0.00  0.00  0.00  0.00  0.00  0.00  0.00
  L3.180.10C              1.48   1.00  0.00  0.00  0.00  0.00  0.00  0.00  0.00  0.00
  L3.180.7                2.35   1.00  0.00  0.00  0.00  0.00  0.00  0.00  0.00  0.00
  L3.180.7A               1.00   1.00  0.00  0.00  0.00  0.00  0.00  0.00  0.00  0.00
  L3.180.7B               1.00   1.00  0.00  0.00  0.00  0.00  0.00  0.00  0.00  0.00
  L3.180.7C               1.00   1.00  0.00  0.00  0.00  0.00  0.00  0.00  0.00  0.00
  L3.190.0                1.00   1.00  0.00  0.00  0.00  0.00  0.00  0.00  0.00  0.00
  L3.190.10               1.00   1.00  0.00  0.00  0.00  0.00  0.00  0.00  0.00  0.00
  L3.190.17               1.00   1.00  0.00  0.00  0.00  0.00  0.00  0.00  0.00  0.00
  L3.190.17A              1.00   1.00  0.00  0.00  0.00  0.00  0.00  0.00  0.00  0.00
  L3.190.20               2.31   1.00  0.00  0.00  0.00  0.00  0.00  0.00  0.00  0.00
  L3.200.0                1.00   1.00  0.00  0.00  0.00  0.00  0.00  0.00  0.00  0.00
  L3.210.0                1.00   1.00  0.00  0.00  0.00  0.00  0.00  0.00  0.00  0.00
  L3.220.0                1.00   1.00  0.00  0.00  0.00  0.00  0.00  0.00  0.00  0.00
  L3.220.10               1.00   1.00  0.00  0.00  0.00  0.00  0.00  0.00  0.00  0.00
  L3.30.0                 1.00   1.00  0.00  0.00  0.00  0.00  0.00  0.00  0.00  0.00
  L3.30.0A                1.00   1.00  0.00  0.00  0.00  0.00  0.00  0.00  0.00  0.00
  L3.30.0B                1.00   1.00  0.00  0.00  0.00  0.00  0.00  0.00  0.00  0.00
  L3.30.10                1.07   1.00  0.00  0.00  0.00  0.00  0.00  0.00  0.00  0.00
  L3.30.15                1.00   1.00  0.00  0.00  0.00  0.00  0.00  0.00  0.00  0.00
  L3.30.15A               2.01   1.00  0.00  0.00  0.00  0.00  0.00  0.00  0.00  0.00
  L3.50.0                 1.00   1.00  0.00  0.00  0.00  0.00  0.00  0.00  0.00  0.00
  L3.50.10                1.00   1.00  0.00  0.00  0.00  0.00  0.00  0.00  0.00  0.00
  L3.50.10A               1.00   1.00  0.00  0.00  0.00  0.00  0.00  0.00  0.00  0.00
  L3.55.0                 1.00   1.00  0.00  0.00  0.00  0.00  0.00  0.00  0.00  0.00
  L3.60.0                 1.00   1.00  0.00  0.00  0.00  0.00  0.00  0.00  0.00  0.00
  L3.60.10                1.00   1.00  0.00  0.00  0.00  0.00  0.00  0.00  0.00  0.00
  L3.60.20                1.00   1.00  0.00  0.00  0.00  0.00  0.00  0.00  0.00  0.00
  L3.60.25                1.20   1.00  0.00  0.00  0.00  0.00  0.00  0.00  0.00  0.00
  L3.60.40                1.00   1.00  0.00  0.00  0.00  0.00  0.00  0.00  0.00  0.00
  L3.60.40A               1.74   1.00  0.00  0.00  0.00  0.00  0.00  0.00  0.00  0.00
  L3.60.5                 1.00   1.00  0.00  0.00  0.00  0.00  0.00  0.00  0.00  0.00
  L3.60.5A                1.00   1.00  0.00  0.00  0.00  0.00  0.00  0.00  0.00  0.00
  L3.65.0                 1.00   1.00  0.00  0.00  0.00  0.00  0.00  0.00  0.00  0.00
  L3.90.0                 1.00   1.00  0.00  0.00  0.00  0.00  0.00  0.00  0.00  0.00
  L3.90.10                1.00   1.00  0.00  0.00  0.00  0.00  0.00  0.00  0.00  0.00
  L3.90.20                1.34   1.00  0.00  0.00  0.00  0.00  0.00  0.00  0.00  0.00
  L3.95.0                 1.00   1.00  0.00  0.00  0.00  0.00  0.00  0.00  0.00  0.00
  L3.95.0A                1.00   1.00  0.00  0.00  0.00  0.00  0.00  0.00  0.00  0.00
  L3.95.0B                4.33   1.00  0.00  0.00  0.00  0.00  0.00  0.00  0.00  0.00
  L4.10.0                 1.00   1.00  0.00  0.00  0.00  0.00  0.00  0.00  0.00  0.00
  L4.20.0                 1.00   1.00  0.00  0.00  0.00  0.00  0.00  0.00  0.00  0.00
  L4.20.0A                1.00   1.00  0.00  0.00  0.00  0.00  0.00  0.00  0.00  0.00
  L4.20.10                1.00   1.00  0.00  0.00  0.00  0.00  0.00  0.00  0.00  0.00
  L4.20.10B               1.00   1.00  0.00  0.00  0.00  0.00  0.00  0.00  0.00  0.00
  L4.20.20                1.00   1.00  0.00  0.00  0.00  0.00  0.00  0.00  0.00  0.00
  L4.20.25                1.16   1.00  0.00  0.00  0.00  0.00  0.00  0.00  0.00  0.00
  L4.20.25A               1.37   1.00  0.00  0.00  0.00  0.00  0.00  0.00  0.00  0.00
  L4.20.25B               1.64   1.00  0.00  0.00  0.00  0.00  0.00  0.00  0.00  0.00
  L4.20.25C               1.00   1.00  0.00  0.00  0.00  0.00  0.00  0.00  0.00  0.00
  L4.20.40                1.16   1.00  0.00  0.00  0.00  0.00  0.00  0.00  0.00  0.00
  L4.20.40A               1.00   1.00  0.00  0.00  0.00  0.00  0.00  0.00  0.00  0.00
  L4.30.0                 1.00   1.00  0.00  0.00  0.00  0.00  0.00  0.00  0.00  0.00
  L4.40.0                 1.00   1.00  0.00  0.00  0.00  0.00  0.00  0.00  0.00  0.00
  L4.40.10                1.00   1.00  0.00  0.00  0.00  0.00  0.00  0.00  0.00  0.00
  L5.0.0                  1.00   1.00  0.00  0.00  0.00  0.00  0.00  0.00  0.00  0.00
  L5.10.0                 1.00   1.00  0.00  0.00  0.00  0.00  0.00  0.00  0.00  0.00
  L5.10.0A                1.00   1.00  0.00  0.00  0.00  0.00  0.00  0.00  0.00  0.00
  L5.10.0B                1.00   1.00  0.00  0.00  0.00  0.00  0.00  0.00  0.00  0.00
  L5.10.0C                1.00   1.00  0.00  0.00  0.00  0.00  0.00  0.00  0.00  0.00
  L6.10.0                 1.00   1.00  0.00  0.00  0.00  0.00  0.00  0.00  0.00  0.00
  L6.10.10                1.00   1.00  0.00  0.00  0.00  0.00  0.00  0.00  0.00  0.00
  L6.10.10A               1.00   1.00  0.00  0.00  0.00  0.00  0.00  0.00  0.00  0.00
  L6.10.10B               1.00   1.00  0.00  0.00  0.00  0.00  0.00  0.00  0.00  0.00
  L6.10.5                 1.00   1.00  0.00  0.00  0.00  0.00  0.00  0.00  0.00  0.00
  L7.10.0                 1.00   1.00  0.00  0.00  0.00  0.00  0.00  0.00  0.00  0.00
  L7.10.10                1.00   1.00  0.00  0.00  0.00  0.00  0.00  0.00  0.00  0.00
  L7.10.10A               1.00   1.00  0.00  0.00  0.00  0.00  0.00  0.00  0.00  0.00
  L7.10.10B               1.00   1.00  0.00  0.00  0.00  0.00  0.00  0.00  0.00  0.00
  L7.10.20                1.00   1.00  0.00  0.00  0.00  0.00  0.00  0.00  0.00  0.00
  L7.10.30                1.00   1.00  0.00  0.00  0.00  0.00  0.00  0.00  0.00  0.00
  L7.10.30A               1.00   1.00  0.00  0.00  0.00  0.00  0.00  0.00  0.00  0.00
  L7.10.30B               1.29   1.00  0.00  0.00  0.00  0.00  0.00  0.00  0.00  0.00
  L7.10.30C               2.48   1.00  0.00  0.00  0.00  0.00  0.00  0.00  0.00  0.00
  L7.10.30C1              2.25   1.00  0.00  0.00  0.00  0.00  0.00  0.00  0.00  0.00
  L7.10.30C2              1.00   1.00  0.00  0.00  0.00  0.00  0.00  0.00  0.00  0.00
  L7.10.30C3              1.22   1.00  0.00  0.00  0.00  0.00  0.00  0.00  0.00  0.00
  L7.10.30C4              1.00   1.00  0.00  0.00  0.00  0.00  0.00  0.00  0.00  0.00
  L7.10.30C5              6.59   1.00  0.00  0.00  0.00  0.00  0.00  0.00  0.00  0.00
  L7.10.30D               1.00   1.00  0.00  0.00  0.00  0.00  0.00  0.00  0.00  0.00
  L7.20.0                 1.00   1.00  0.00  0.00  0.00  0.00  0.00  0.00  0.00  0.00
  L8.10.0                 1.13   1.00  0.00  0.00  0.00  0.00  0.00  0.00  0.00  0.00
  L8.10.0A                1.00   1.00  0.00  0.00  0.00  0.00  0.00  0.00  0.00  0.00
  L8.10.10                1.00   1.00  0.00  0.00  0.00  0.00  0.00  0.00  0.00  0.00
  L8.10.10A               1.00   1.00  0.00  0.00  0.00  0.00  0.00  0.00  0.00  0.00
  L8.10.20                1.00   1.00  0.00  0.00  0.00  0.00  0.00  0.00  0.00  0.00
  L8.10.20A               1.00   1.00  0.00  0.00  0.00  0.00  0.00  0.00  0.00  0.00
  L8.10.30                1.00   1.00  0.00  0.00  0.00  0.00  0.00  0.00  0.00  0.00
  L8.10.30A               1.00   1.00  0.00  0.00  0.00  0.00  0.00  0.00  0.00  0.00
  L9.10.0                 1.00   1.00  0.00  0.00  0.00  0.00  0.00  0.00  0.00  0.00
  L9.10.20                1.00   1.00  0.00  0.00  0.00  0.00  0.00  0.00  0.00  0.00
  L9.20.0                 1.00   1.00  0.00  0.00  0.00  0.00  0.00  0.00  0.00  0.00
  LD2.11                  1.00   1.00  0.00  0.00  0.00  0.00  0.00  0.00  0.00  0.00
  LD2.3                   1.00   1.00  0.00  0.00  0.00  0.00  0.00  0.00  0.00  0.00
  LD8.10.10               1.00   1.00  0.00  0.00  0.00  0.00  0.00  0.00  0.00  0.00
  T.10.5.0                1.00   1.00  0.00  0.00  0.00  0.00  0.00  0.00  0.00  0.00
  T10.10.0A               1.00   1.00  0.00  0.00  0.00  0.00  0.00  0.00  0.00  0.00
  T10.10.10A              1.00   1.00  0.00  0.00  0.00  0.00  0.00  0.00  0.00  0.00
  T10.10.5A               1.00   1.00  0.00  0.00  0.00  0.00  0.00  0.00  0.00  0.00
  T18.5.0A                1.00   1.00  0.00  0.00  0.00  0.00  0.00  0.00  0.00  0.00
  T3.10.150B              1.00   1.00  0.00  0.00  0.00  0.00  0.00  0.00  0.00  0.00
  T3.10.150D              1.00   1.00  0.00  0.00  0.00  0.00  0.00  0.00  0.00  0.00
  T3.170.15A              1.00   1.00  0.00  0.00  0.00  0.00  0.00  0.00  0.00  0.00
  T3.170.20               1.00   1.00  0.00  0.00  0.00  0.00  0.00  0.00  0.00  0.00
  T3.180.0A               1.17   1.00  0.00  0.00  0.00  0.00  0.00  0.00  0.00  0.00
  T3.180.10A              1.00   1.00  0.00  0.00  0.00  0.00  0.00  0.00  0.00  0.00
  T3.180.10B              1.00   1.00  0.00  0.00  0.00  0.00  0.00  0.00  0.00  0.00
  T3.180.7A               1.00   1.00  0.00  0.00  0.00  0.00  0.00  0.00  0.00  0.00
  T3.180.7B               1.00   1.00  0.00  0.00  0.00  0.00  0.00  0.00  0.00  0.00
  T3.180.7C               1.00   1.00  0.00  0.00  0.00  0.00  0.00  0.00  0.00  0.00
  T7.10.10A               1.00   1.00  0.00  0.00  0.00  0.00  0.00  0.00  0.00  0.00
  T7.10.10B               1.00   1.00  0.00  0.00  0.00  0.00  0.00  0.00  0.00  0.00
  
  
  *************************
  Conduit Surcharge Summary
  *************************
  
  No conduits were surcharged.
  

  Analysis begun on:  Fri Mar  6 14:52:44 2026
  Analysis ended on:  Fri Mar  6 14:52:45 2026
  Total elapsed time: 00:00:01