
  EPA STORM WATER MANAGEMENT MODEL - VERSION 5.2 (Build 5.2.4)
  ------------------------------------------------------------

  WARNING 03: negative offset ignored for Link LS151623
  WARNING 03: negative offset ignored for Link LS151623
  WARNING 03: negative offset ignored for Link LS151624
  WARNING 03: negative offset ignored for Link LS151624
  WARNING 03: negative offset ignored for Link LS151625
  WARNING 03: negative offset ignored for Link LS151625
  WARNING 03: negative offset ignored for Link LS151626
  WARNING 03: negative offset ignored for Link LS151626
  WARNING 03: negative offset ignored for Link LS151627
  WARNING 03: negative offset ignored for Link LS151627
  WARNING 03: negative offset ignored for Link LS151628
  WARNING 03: negative offset ignored for Link LS151628
  WARNING 03: negative offset ignored for Link LS151629
  WARNING 03: negative offset ignored for Link LS151629
  WARNING 03: negative offset ignored for Link LS151630
  WARNING 03: negative offset ignored for Link LS151630
  WARNING 03: negative offset ignored for Link LS151631
  WARNING 03: negative offset ignored for Link LS151631
  WARNING 03: negative offset ignored for Link LS151632
  WARNING 03: negative offset ignored for Link LS151632
  WARNING 03: negative offset ignored for Link LS151633
  WARNING 03: negative offset ignored for Link LS151633
  WARNING 03: negative offset ignored for Link LS151634
  WARNING 03: negative offset ignored for Link LS151634
  WARNING 03: negative offset ignored for Link LS151635
  WARNING 03: negative offset ignored for Link LS151635
  WARNING 03: negative offset ignored for Link LS151636
  WARNING 03: negative offset ignored for Link LS151636
  WARNING 03: negative offset ignored for Link LS151637
  WARNING 03: negative offset ignored for Link LS151637
  WARNING 03: negative offset ignored for Link LS151740
  WARNING 03: negative offset ignored for Link LS151740
  WARNING 03: negative offset ignored for Link LS151741
  WARNING 03: negative offset ignored for Link LS151741
  WARNING 03: negative offset ignored for Link LS151742
  WARNING 03: negative offset ignored for Link LS151742
  WARNING 03: negative offset ignored for Link LS151747
  WARNING 03: negative offset ignored for Link LS151747
  WARNING 08: elevation drop exceeds length for Conduit LS151747
  WARNING 08: elevation drop exceeds length for Conduit LS151812
  WARNING 08: elevation drop exceeds length for Conduit LS151814
  WARNING 08: elevation drop exceeds length for Conduit LS151816
  WARNING 08: elevation drop exceeds length for Conduit LS151818
  WARNING 02: maximum depth increased for Node MH142388
  WARNING 02: maximum depth increased for Node MH142389
  WARNING 02: maximum depth increased for Node MH142390
  WARNING 02: maximum depth increased for Node MH142392
  WARNING 02: maximum depth increased for Node MH142393
  WARNING 02: maximum depth increased for Node MH142394
  WARNING 02: maximum depth increased for Node MH142398
  WARNING 02: maximum depth increased for Node MH142399
  WARNING 02: maximum depth increased for Node MH142545
  WARNING 02: maximum depth increased for Node MH142546
  WARNING 02: maximum depth increased for Node MH142638
  WARNING 02: maximum depth increased for Node MH142639
  WARNING 02: maximum depth increased for Node MH142640
  WARNING 02: maximum depth increased for Node MH142641
  WARNING 02: maximum depth increased for Node MH142726
  WARNING 02: maximum depth increased for Node MH144047
  WARNING 02: maximum depth increased for Node MH144068
  WARNING 02: maximum depth increased for Node MH144072
  WARNING 02: maximum depth increased for Node MH144073
  WARNING 02: maximum depth increased for Node MH144074
  WARNING 02: maximum depth increased for Node MH144076
  WARNING 02: maximum depth increased for Node MH144079
  WARNING 02: maximum depth increased for Node MH144080
  WARNING 02: maximum depth increased for Node MH144081
  WARNING 02: maximum depth increased for Node MH144082
  WARNING 02: maximum depth increased for Node MH144083
  WARNING 02: maximum depth increased for Node MH144084
  WARNING 02: maximum depth increased for Node MH144092
  WARNING 02: maximum depth increased for Node MH147870
  WARNING 02: maximum depth increased for Node MH150729
  WARNING 02: maximum depth increased for Node MH150730
  WARNING 02: maximum depth increased for Node MH150731
  WARNING 02: maximum depth increased for Node MH150732
  WARNING 02: maximum depth increased for Node MH150733
  WARNING 02: maximum depth increased for Node MH150734
  WARNING 02: maximum depth increased for Node MH150735
  WARNING 02: maximum depth increased for Node MH150736
  WARNING 02: maximum depth increased for Node MH150737
  WARNING 02: maximum depth increased for Node MH150738
  WARNING 02: maximum depth increased for Node MH150739
  WARNING 02: maximum depth increased for Node MH150740
  WARNING 02: maximum depth increased for Node MH150741
  WARNING 02: maximum depth increased for Node MH150742
  WARNING 02: maximum depth increased for Node MH150743
  WARNING 02: maximum depth increased for Node MH150744
  WARNING 02: maximum depth increased for Node MH150745
  WARNING 02: maximum depth increased for Node MH150746
  WARNING 02: maximum depth increased for Node MH150747
  WARNING 02: maximum depth increased for Node MH150748
  WARNING 02: maximum depth increased for Node MH150749
  WARNING 02: maximum depth increased for Node MH150750
  WARNING 02: maximum depth increased for Node MH150751
  WARNING 02: maximum depth increased for Node MH150752
  WARNING 02: maximum depth increased for Node MH150753
  WARNING 02: maximum depth increased for Node MH150754
  WARNING 02: maximum depth increased for Node MH150755
  WARNING 02: maximum depth increased for Node MH150756
  WARNING 02: maximum depth increased for Node MH150757
  WARNING 02: maximum depth increased for Node MH150758
  WARNING 02: maximum depth increased for Node MH150759
  WARNING 02: maximum depth increased for Node MH150760
  WARNING 02: maximum depth increased for Node MH150761
  WARNING 02: maximum depth increased for Node MH150762
  WARNING 02: maximum depth increased for Node MH150763
  WARNING 02: maximum depth increased for Node MH150764
  WARNING 02: maximum depth increased for Node MH150765
  WARNING 02: maximum depth increased for Node MH150766
  WARNING 02: maximum depth increased for Node MH150767
  WARNING 02: maximum depth increased for Node MH150768
  WARNING 02: maximum depth increased for Node MH150769
  WARNING 02: maximum depth increased for Node MH150770
  WARNING 02: maximum depth increased for Node MH150771
  WARNING 02: maximum depth increased for Node MH150772
  WARNING 02: maximum depth increased for Node MH150773
  WARNING 02: maximum depth increased for Node MH150774
  WARNING 02: maximum depth increased for Node MH150775
  WARNING 02: maximum depth increased for Node MH150776
  WARNING 02: maximum depth increased for Node MH150777
  WARNING 02: maximum depth increased for Node MH150778
  WARNING 02: maximum depth increased for Node MH150779
  WARNING 02: maximum depth increased for Node MH150780
  WARNING 02: maximum depth increased for Node MH150781
  WARNING 02: maximum depth increased for Node MH150782
  WARNING 02: maximum depth increased for Node MH150783
  WARNING 02: maximum depth increased for Node MH150784
  WARNING 02: maximum depth increased for Node MH150785
  WARNING 02: maximum depth increased for Node MH150786
  WARNING 02: maximum depth increased for Node MH150787
  WARNING 02: maximum depth increased for Node MH150788
  WARNING 02: maximum depth increased for Node MH150789
  WARNING 02: maximum depth increased for Node MH150790
  WARNING 02: maximum depth increased for Node MH150791
  WARNING 02: maximum depth increased for Node MH150793
  WARNING 02: maximum depth increased for Node MH150795
  WARNING 02: maximum depth increased for Node MH150797
  WARNING 02: maximum depth increased for Node MH150798
  WARNING 02: maximum depth increased for Node MH151625
  WARNING 02: maximum depth increased for Node MH151626
  WARNING 02: maximum depth increased for Node MH151643
  WARNING 02: maximum depth increased for Node MH151644
  WARNING 02: maximum depth increased for Node MH151654
  WARNING 02: maximum depth increased for Node MH151655
  WARNING 02: maximum depth increased for Node MH151656
  WARNING 02: maximum depth increased for Node MH151657
  WARNING 02: maximum depth increased for Node MH151658
  WARNING 02: maximum depth increased for Node MH151659
  WARNING 02: maximum depth increased for Node MH151660
  WARNING 02: maximum depth increased for Node MH151661
  WARNING 02: maximum depth increased for Node MH151662
  WARNING 02: maximum depth increased for Node MH151663
  WARNING 02: maximum depth increased for Node MH151683
  
  ****************
  Analysis Options
  ****************
  Flow Units ............... CMS
  Process Models:
    Rainfall/Runoff ........ NO
    RDII ................... NO
    Snowmelt ............... NO
    Groundwater ............ NO
    Flow Routing ........... YES
    Ponding Allowed ........ YES
    Water Quality .......... NO
  Flow Routing Method ...... DYNWAVE
  Surcharge Method ......... EXTRAN
  Starting Date ............ 01/01/2009 00:00:00
  Ending Date .............. 02/01/2009 00:00:00
  Antecedent Dry Days ...... 0.0
  Report Time Step ......... 00:15:00
  Routing Time Step ........ 30.00 sec
  Variable Time Step ....... NO
  Maximum Trials ........... 8
  Number of Threads ........ 1
  Head Tolerance ........... 0.001524 m
  
  
  *********************
  Control Actions Taken
  *********************

  
  **************************        Volume        Volume
  Flow Routing Continuity        hectare-m      10^6 ltr
  **************************     ---------     ---------
  Dry Weather Inflow .......         0.000         0.000
  Wet Weather Inflow .......         0.000         0.000
  Groundwater Inflow .......         0.000         0.000
  RDII Inflow ..............         0.000         0.000
  External Inflow ..........         0.000         0.000
  External Outflow .........         0.000         0.000
  Flooding Loss ............         0.000         0.000
  Evaporation Loss .........         0.000         0.000
  Exfiltration Loss ........         0.000         0.000
  Initial Stored Volume ....         0.000         0.000
  Final Stored Volume ......         0.000         0.000
  Continuity Error (%) .....         0.000
  
  
  ********************************
  Highest Flow Instability Indexes
  ********************************
  All links are stable.
  
  
  *********************************
  Most Frequent Nonconverging Nodes
  *********************************
  Convergence obtained at all time steps.
  
  
  *************************
  Routing Time Step Summary
  *************************
  Minimum Time Step           :    30.00 sec
  Average Time Step           :    30.00 sec
  Maximum Time Step           :    30.00 sec
  % of Time in Steady State   :     0.00
  Average Iterations per Step :     2.00
  % of Steps Not Converging   :     0.00
  
  
  ******************
  Node Depth Summary
  ******************
  
  ---------------------------------------------------------------------------------
                                 Average  Maximum  Maximum  Time of Max    Reported
                                   Depth    Depth      HGL   Occurrence   Max Depth
  Node                 Type       Meters   Meters   Meters  days hr:min      Meters
  ---------------------------------------------------------------------------------
  MH137271             JUNCTION     0.00     0.00     1.52     0  00:00        0.00
  MH142388             JUNCTION     0.00     0.00     4.28     0  00:00        0.00
  MH142389             JUNCTION     0.00     0.00     3.95     0  00:00        0.00
  MH142390             JUNCTION     0.00     0.00     3.63     0  00:00        0.00
  MH142391             JUNCTION     0.00     0.00     3.39     0  00:00        0.00
  MH142392             JUNCTION     0.00     0.00     4.91     0  00:00        0.00
  MH142393             JUNCTION     0.00     0.00     5.33     0  00:00        0.00
  MH142394             JUNCTION     0.00     0.00     5.79     0  00:00        0.00
  MH142398             JUNCTION     0.00     0.00     7.45     0  00:00        0.00
  MH142399             JUNCTION     0.00     0.00     7.64     0  00:00        0.00
  MH142464             JUNCTION     0.00     0.00     1.54     0  00:00        0.00
  MH142465             JUNCTION     0.00     0.00     1.81     0  00:00        0.00
  MH142466             JUNCTION     0.00     0.00     2.13     0  00:00        0.00
  MH142467             JUNCTION     0.00     0.00     2.52     0  00:00        0.00
  MH142468             JUNCTION     0.00     0.00     2.85     0  00:00        0.00
  MH142469             JUNCTION     0.00     0.00     3.15     0  00:00        0.00
  MH142545             JUNCTION     0.00     0.00    26.97     0  00:00        0.00
  MH142546             JUNCTION     0.00     0.00    28.39     0  00:00        0.00
  MH142638             JUNCTION     0.00     0.00    26.78     0  00:00        0.00
  MH142639             JUNCTION     0.00     0.00    27.13     0  00:00        0.00
  MH142640             JUNCTION     0.00     0.00    27.25     0  00:00        0.00
  MH142641             JUNCTION     0.00     0.00    27.31     0  00:00        0.00
  MH142726             JUNCTION     0.00     0.00    10.10     0  00:00        0.00
  MH144047             JUNCTION     0.00     0.00    17.84     0  00:00        0.00
  MH144068             JUNCTION     0.00     0.00    18.01     0  00:00        0.00
  MH144072             JUNCTION     0.00     0.00    18.29     0  00:00        0.00
  MH144073             JUNCTION     0.00     0.00    18.55     0  00:00        0.00
  MH144074             JUNCTION     0.00     0.00    18.98     0  00:00        0.00
  MH144076             JUNCTION     0.00     0.00    19.23     0  00:00        0.00
  MH144079             JUNCTION     0.00     0.00    19.51     0  00:00        0.00
  MH144080             JUNCTION     0.00     0.00    19.88     0  00:00        0.00
  MH144081             JUNCTION     0.00     0.00    20.21     0  00:00        0.00
  MH144082             JUNCTION     0.00     0.00    20.45     0  00:00        0.00
  MH144083             JUNCTION     0.00     0.00    20.52     0  00:00        0.00
  MH144084             JUNCTION     0.00     0.00    22.36     0  00:00        0.00
  MH144092             JUNCTION     0.00     0.00    22.81     0  00:00        0.00
  MH147870             JUNCTION     0.00     0.00     7.82     0  00:00        0.00
  MH150604             JUNCTION     0.00     0.00    -5.12     0  00:00        0.00
  MH150605             JUNCTION     0.00     0.00    -5.06     0  00:00        0.00
  MH150606             JUNCTION     0.00     0.00    -4.96     0  00:00        0.00
  MH150607             JUNCTION     0.00     0.00    -4.91     0  00:00        0.00
  MH150608             JUNCTION     0.00     0.00    -4.79     0  00:00        0.00
  MH150609             JUNCTION     0.00     0.00    -4.64     0  00:00        0.00
  MH150610             JUNCTION     0.00     0.00    -4.62     0  00:00        0.00
  MH150611             JUNCTION     0.00     0.00    -4.50     0  00:00        0.00
  MH150612             JUNCTION     0.00     0.00    -4.34     0  00:00        0.00
  MH150613             JUNCTION     0.00     0.00    -4.02     0  00:00        0.00
  MH150614             JUNCTION     0.00     0.00    -3.82     0  00:00        0.00
  MH150615             JUNCTION     0.00     0.00    -3.72     0  00:00        0.00
  MH150616             JUNCTION     0.00     0.00    -3.61     0  00:00        0.00
  MH150617             JUNCTION     0.00     0.00    -3.49     0  00:00        0.00
  MH150618             JUNCTION     0.00     0.00    -3.36     0  00:00        0.00
  MH150619             JUNCTION     0.00     0.00    -3.21     0  00:00        0.00
  MH150620             JUNCTION     0.00     0.00    -3.06     0  00:00        0.00
  MH150723             JUNCTION     0.00     0.00    -4.22     0  00:00        0.00
  MH150724             JUNCTION     0.00     0.00    -4.12     0  00:00        0.00
  MH150729             JUNCTION     0.00     0.00     4.84     0  00:00        0.00
  MH150730             JUNCTION     0.00     0.00     4.99     0  00:00        0.00
  MH150731             JUNCTION     0.00     0.00     5.11     0  00:00        0.00
  MH150732             JUNCTION     0.00     0.00     5.25     0  00:00        0.00
  MH150733             JUNCTION     0.00     0.00     5.37     0  00:00        0.00
  MH150734             JUNCTION     0.00     0.00     6.82     0  00:00        0.00
  MH150735             JUNCTION     0.00     0.00     6.92     0  00:00        0.00
  MH150736             JUNCTION     0.00     0.00     7.01     0  00:00        0.00
  MH150737             JUNCTION     0.00     0.00     7.10     0  00:00        0.00
  MH150738             JUNCTION     0.00     0.00     7.33     0  00:00        0.00
  MH150739             JUNCTION     0.00     0.00     7.48     0  00:00        0.00
  MH150740             JUNCTION     0.00     0.00     7.54     0  00:00        0.00
  MH150741             JUNCTION     0.00     0.00     8.65     0  00:00        0.00
  MH150742             JUNCTION     0.00     0.00     9.08     0  00:00        0.00
  MH150743             JUNCTION     0.00     0.00     9.21     0  00:00        0.00
  MH150744             JUNCTION     0.00     0.00     9.19     0  00:00        0.00
  MH150745             JUNCTION     0.00     0.00    10.91     0  00:00        0.00
  MH150746             JUNCTION     0.00     0.00    11.41     0  00:00        0.00
  MH150747             JUNCTION     0.00     0.00    11.49     0  00:00        0.00
  MH150748             JUNCTION     0.00     0.00    11.63     0  00:00        0.00
  MH150749             JUNCTION     0.00     0.00    11.90     0  00:00        0.00
  MH150750             JUNCTION     0.00     0.00    12.08     0  00:00        0.00
  MH150751             JUNCTION     0.00     0.00    12.23     0  00:00        0.00
  MH150752             JUNCTION     0.00     0.00    12.37     0  00:00        0.00
  MH150753             JUNCTION     0.00     0.00    12.76     0  00:00        0.00
  MH150754             JUNCTION     0.00     0.00    12.85     0  00:00        0.00
  MH150755             JUNCTION     0.00     0.00    13.02     0  00:00        0.00
  MH150756             JUNCTION     0.00     0.00    13.06     0  00:00        0.00
  MH150757             JUNCTION     0.00     0.00    13.69     0  00:00        0.00
  MH150758             JUNCTION     0.00     0.00    13.82     0  00:00        0.00
  MH150759             JUNCTION     0.00     0.00    13.94     0  00:00        0.00
  MH150760             JUNCTION     0.00     0.00    14.13     0  00:00        0.00
  MH150761             JUNCTION     0.00     0.00    14.92     0  00:00        0.00
  MH150762             JUNCTION     0.00     0.00    15.01     0  00:00        0.00
  MH150763             JUNCTION     0.00     0.00    15.83     0  00:00        0.00
  MH150764             JUNCTION     0.00     0.00    16.00     0  00:00        0.00
  MH150765             JUNCTION     0.00     0.00    16.23     0  00:00        0.00
  MH150766             JUNCTION     0.00     0.00    16.43     0  00:00        0.00
  MH150767             JUNCTION     0.00     0.00    16.75     0  00:00        0.00
  MH150768             JUNCTION     0.00     0.00    16.98     0  00:00        0.00
  MH150769             JUNCTION     0.00     0.00    17.10     0  00:00        0.00
  MH150770             JUNCTION     0.00     0.00    17.16     0  00:00        0.00
  MH150771             JUNCTION     0.00     0.00    17.35     0  00:00        0.00
  MH150772             JUNCTION     0.00     0.00    18.24     0  00:00        0.00
  MH150773             JUNCTION     0.00     0.00    19.59     0  00:00        0.00
  MH150774             JUNCTION     0.00     0.00    19.69     0  00:00        0.00
  MH150775             JUNCTION     0.00     0.00    20.18     0  00:00        0.00
  MH150776             JUNCTION     0.00     0.00    20.36     0  00:00        0.00
  MH150777             JUNCTION     0.00     0.00    21.20     0  00:00        0.00
  MH150778             JUNCTION     0.00     0.00    21.23     0  00:00        0.00
  MH150779             JUNCTION     0.00     0.00    21.47     0  00:00        0.00
  MH150780             JUNCTION     0.00     0.00    22.12     0  00:00        0.00
  MH150781             JUNCTION     0.00     0.00    22.18     0  00:00        0.00
  MH150782             JUNCTION     0.00     0.00    22.27     0  00:00        0.00
  MH150783             JUNCTION     0.00     0.00    22.73     0  00:00        0.00
  MH150784             JUNCTION     0.00     0.00    22.92     0  00:00        0.00
  MH150785             JUNCTION     0.00     0.00    23.08     0  00:00        0.00
  MH150786             JUNCTION     0.00     0.00    23.22     0  00:00        0.00
  MH150787             JUNCTION     0.00     0.00    23.40     0  00:00        0.00
  MH150788             JUNCTION     0.00     0.00    24.99     0  00:00        0.00
  MH150789             JUNCTION     0.00     0.00    25.09     0  00:00        0.00
  MH150790             JUNCTION     0.00     0.00    26.67     0  00:00        0.00
  MH150791             JUNCTION     0.00     0.00    20.11     0  00:00        0.00
  MH150793             JUNCTION     0.00     0.00    16.05     0  00:00        0.00
  MH150795             JUNCTION     0.00     0.00    12.50     0  00:00        0.00
  MH150797             JUNCTION     0.00     0.00    22.82     0  00:00        0.00
  MH150798             JUNCTION     0.00     0.00    25.20     0  00:00        0.00
  MH151625             JUNCTION     0.00     0.00    16.11     0  00:00        0.00
  MH151626             JUNCTION     0.00     0.00    16.81     0  00:00        0.00
  MH151643             JUNCTION     0.00     0.00    15.26     0  00:00        0.00
  MH151644             JUNCTION     0.00     0.00    15.20     0  00:00        0.00
  MH151654             JUNCTION     0.00     0.00    10.41     0  00:00        0.00
  MH151655             JUNCTION     0.00     0.00    10.56     0  00:00        0.00
  MH151656             JUNCTION     0.00     0.00    10.70     0  00:00        0.00
  MH151657             JUNCTION     0.00     0.00    10.88     0  00:00        0.00
  MH151658             JUNCTION     0.00     0.00    10.98     0  00:00        0.00
  MH151659             JUNCTION     0.00     0.00    11.17     0  00:00        0.00
  MH151660             JUNCTION     0.00     0.00    12.07     0  00:00        0.00
  MH151661             JUNCTION     0.00     0.00    13.12     0  00:00        0.00
  MH151662             JUNCTION     0.00     0.00    13.50     0  00:00        0.00
  MH151663             JUNCTION     0.00     0.00    13.65     0  00:00        0.00
  MH151683             JUNCTION     0.00     0.00    14.50     0  00:00        0.00
  MH150863             OUTFALL      0.00     0.00     0.00     0  00:00        0.00
  
  
  *******************
  Node Inflow Summary
  *******************
  
  -------------------------------------------------------------------------------------------------
                                  Maximum  Maximum                  Lateral       Total        Flow
                                  Lateral    Total  Time of Max      Inflow      Inflow     Balance
                                   Inflow   Inflow   Occurrence      Volume      Volume       Error
  Node                 Type           CMS      CMS  days hr:min    10^6 ltr    10^6 ltr     Percent
  -------------------------------------------------------------------------------------------------
  MH137271             JUNCTION     0.000    0.000     0  00:00           0           0       0.000 ltr
  MH142388             JUNCTION     0.000    0.000     0  00:00           0           0       0.000 ltr
  MH142389             JUNCTION     0.000    0.000     0  00:00           0           0       0.000 ltr
  MH142390             JUNCTION     0.000    0.000     0  00:00           0           0       0.000 ltr
  MH142391             JUNCTION     0.000    0.000     0  00:00           0           0       0.000 ltr
  MH142392             JUNCTION     0.000    0.000     0  00:00           0           0       0.000 ltr
  MH142393             JUNCTION     0.000    0.000     0  00:00           0           0       0.000 ltr
  MH142394             JUNCTION     0.000    0.000     0  00:00           0           0       0.000 ltr
  MH142398             JUNCTION     0.000    0.000     0  00:00           0           0       0.000 ltr
  MH142399             JUNCTION     0.000    0.000     0  00:00           0           0       0.000 ltr
  MH142464             JUNCTION     0.000    0.000     0  00:00           0           0       0.000 ltr
  MH142465             JUNCTION     0.000    0.000     0  00:00           0           0       0.000 ltr
  MH142466             JUNCTION     0.000    0.000     0  00:00           0           0       0.000 ltr
  MH142467             JUNCTION     0.000    0.000     0  00:00           0           0       0.000 ltr
  MH142468             JUNCTION     0.000    0.000     0  00:00           0           0       0.000 ltr
  MH142469             JUNCTION     0.000    0.000     0  00:00           0           0       0.000 ltr
  MH142545             JUNCTION     0.000    0.000     0  00:00           0           0       0.000 ltr
  MH142546             JUNCTION     0.000    0.000     0  00:00           0           0       0.000 ltr
  MH142638             JUNCTION     0.000    0.000     0  00:00           0           0       0.000 ltr
  MH142639             JUNCTION     0.000    0.000     0  00:00           0           0       0.000 ltr
  MH142640             JUNCTION     0.000    0.000     0  00:00           0           0       0.000 ltr
  MH142641             JUNCTION     0.000    0.000     0  00:00           0           0       0.000 ltr
  MH142726             JUNCTION     0.000    0.000     0  00:00           0           0       0.000 ltr
  MH144047             JUNCTION     0.000    0.000     0  00:00           0           0       0.000 ltr
  MH144068             JUNCTION     0.000    0.000     0  00:00           0           0       0.000 ltr
  MH144072             JUNCTION     0.000    0.000     0  00:00           0           0       0.000 ltr
  MH144073             JUNCTION     0.000    0.000     0  00:00           0           0       0.000 ltr
  MH144074             JUNCTION     0.000    0.000     0  00:00           0           0       0.000 ltr
  MH144076             JUNCTION     0.000    0.000     0  00:00           0           0       0.000 ltr
  MH144079             JUNCTION     0.000    0.000     0  00:00           0           0       0.000 ltr
  MH144080             JUNCTION     0.000    0.000     0  00:00           0           0       0.000 ltr
  MH144081             JUNCTION     0.000    0.000     0  00:00           0           0       0.000 ltr
  MH144082             JUNCTION     0.000    0.000     0  00:00           0           0       0.000 ltr
  MH144083             JUNCTION     0.000    0.000     0  00:00           0           0       0.000 ltr
  MH144084             JUNCTION     0.000    0.000     0  00:00           0           0       0.000 ltr
  MH144092             JUNCTION     0.000    0.000     0  00:00           0           0       0.000 ltr
  MH147870             JUNCTION     0.000    0.000     0  00:00           0           0       0.000 ltr
  MH150604             JUNCTION     0.000    0.000     0  00:00           0           0       0.000 ltr
  MH150605             JUNCTION     0.000    0.000     0  00:00           0           0       0.000 ltr
  MH150606             JUNCTION     0.000    0.000     0  00:00           0           0       0.000 ltr
  MH150607             JUNCTION     0.000    0.000     0  00:00           0           0       0.000 ltr
  MH150608             JUNCTION     0.000    0.000     0  00:00           0           0       0.000 ltr
  MH150609             JUNCTION     0.000    0.000     0  00:00           0           0       0.000 ltr
  MH150610             JUNCTION     0.000    0.000     0  00:00           0           0       0.000 ltr
  MH150611             JUNCTION     0.000    0.000     0  00:00           0           0       0.000 ltr
  MH150612             JUNCTION     0.000    0.000     0  00:00           0           0       0.000 ltr
  MH150613             JUNCTION     0.000    0.000     0  00:00           0           0       0.000 ltr
  MH150614             JUNCTION     0.000    0.000     0  00:00           0           0       0.000 ltr
  MH150615             JUNCTION     0.000    0.000     0  00:00           0           0       0.000 ltr
  MH150616             JUNCTION     0.000    0.000     0  00:00           0           0       0.000 ltr
  MH150617             JUNCTION     0.000    0.000     0  00:00           0           0       0.000 ltr
  MH150618             JUNCTION     0.000    0.000     0  00:00           0           0       0.000 ltr
  MH150619             JUNCTION     0.000    0.000     0  00:00           0           0       0.000 ltr
  MH150620             JUNCTION     0.000    0.000     0  00:00           0           0       0.000 ltr
  MH150723             JUNCTION     0.000    0.000     0  00:00           0           0       0.000 ltr
  MH150724             JUNCTION     0.000    0.000     0  00:00           0           0       0.000 ltr
  MH150729             JUNCTION     0.000    0.000     0  00:00           0           0       0.000 ltr
  MH150730             JUNCTION     0.000    0.000     0  00:00           0           0       0.000 ltr
  MH150731             JUNCTION     0.000    0.000     0  00:00           0           0       0.000 ltr
  MH150732             JUNCTION     0.000    0.000     0  00:00           0           0       0.000 ltr
  MH150733             JUNCTION     0.000    0.000     0  00:00           0           0       0.000 ltr
  MH150734             JUNCTION     0.000    0.000     0  00:00           0           0       0.000 ltr
  MH150735             JUNCTION     0.000    0.000     0  00:00           0           0       0.000 ltr
  MH150736             JUNCTION     0.000    0.000     0  00:00           0           0       0.000 ltr
  MH150737             JUNCTION     0.000    0.000     0  00:00           0           0       0.000 ltr
  MH150738             JUNCTION     0.000    0.000     0  00:00           0           0       0.000 ltr
  MH150739             JUNCTION     0.000    0.000     0  00:00           0           0       0.000 ltr
  MH150740             JUNCTION     0.000    0.000     0  00:00           0           0       0.000 ltr
  MH150741             JUNCTION     0.000    0.000     0  00:00           0           0       0.000 ltr
  MH150742             JUNCTION     0.000    0.000     0  00:00           0           0       0.000 ltr
  MH150743             JUNCTION     0.000    0.000     0  00:00           0           0       0.000 ltr
  MH150744             JUNCTION     0.000    0.000     0  00:00           0           0       0.000 ltr
  MH150745             JUNCTION     0.000    0.000     0  00:00           0           0       0.000 ltr
  MH150746             JUNCTION     0.000    0.000     0  00:00           0           0       0.000 ltr
  MH150747             JUNCTION     0.000    0.000     0  00:00           0           0       0.000 ltr
  MH150748             JUNCTION     0.000    0.000     0  00:00           0           0       0.000 ltr
  MH150749             JUNCTION     0.000    0.000     0  00:00           0           0       0.000 ltr
  MH150750             JUNCTION     0.000    0.000     0  00:00           0           0       0.000 ltr
  MH150751             JUNCTION     0.000    0.000     0  00:00           0           0       0.000 ltr
  MH150752             JUNCTION     0.000    0.000     0  00:00           0           0       0.000 ltr
  MH150753             JUNCTION     0.000    0.000     0  00:00           0           0       0.000 ltr
  MH150754             JUNCTION     0.000    0.000     0  00:00           0           0       0.000 ltr
  MH150755             JUNCTION     0.000    0.000     0  00:00           0           0       0.000 ltr
  MH150756             JUNCTION     0.000    0.000     0  00:00           0           0       0.000 ltr
  MH150757             JUNCTION     0.000    0.000     0  00:00           0           0       0.000 ltr
  MH150758             JUNCTION     0.000    0.000     0  00:00           0           0       0.000 ltr
  MH150759             JUNCTION     0.000    0.000     0  00:00           0           0       0.000 ltr
  MH150760             JUNCTION     0.000    0.000     0  00:00           0           0       0.000 ltr
  MH150761             JUNCTION     0.000    0.000     0  00:00           0           0       0.000 ltr
  MH150762             JUNCTION     0.000    0.000     0  00:00           0           0       0.000 ltr
  MH150763             JUNCTION     0.000    0.000     0  00:00           0           0       0.000 ltr
  MH150764             JUNCTION     0.000    0.000     0  00:00           0           0       0.000 ltr
  MH150765             JUNCTION     0.000    0.000     0  00:00           0           0       0.000 ltr
  MH150766             JUNCTION     0.000    0.000     0  00:00           0           0       0.000 ltr
  MH150767             JUNCTION     0.000    0.000     0  00:00           0           0       0.000 ltr
  MH150768             JUNCTION     0.000    0.000     0  00:00           0           0       0.000 ltr
  MH150769             JUNCTION     0.000    0.000     0  00:00           0           0       0.000 ltr
  MH150770             JUNCTION     0.000    0.000     0  00:00           0           0       0.000 ltr
  MH150771             JUNCTION     0.000    0.000     0  00:00           0           0       0.000 ltr
  MH150772             JUNCTION     0.000    0.000     0  00:00           0           0       0.000 ltr
  MH150773             JUNCTION     0.000    0.000     0  00:00           0           0       0.000 ltr
  MH150774             JUNCTION     0.000    0.000     0  00:00           0           0       0.000 ltr
  MH150775             JUNCTION     0.000    0.000     0  00:00           0           0       0.000 ltr
  MH150776             JUNCTION     0.000    0.000     0  00:00           0           0       0.000 ltr
  MH150777             JUNCTION     0.000    0.000     0  00:00           0           0       0.000 ltr
  MH150778             JUNCTION     0.000    0.000     0  00:00           0           0       0.000 ltr
  MH150779             JUNCTION     0.000    0.000     0  00:00           0           0       0.000 ltr
  MH150780             JUNCTION     0.000    0.000     0  00:00           0           0       0.000 ltr
  MH150781             JUNCTION     0.000    0.000     0  00:00           0           0       0.000 ltr
  MH150782             JUNCTION     0.000    0.000     0  00:00           0           0       0.000 ltr
  MH150783             JUNCTION     0.000    0.000     0  00:00           0           0       0.000 ltr
  MH150784             JUNCTION     0.000    0.000     0  00:00           0           0       0.000 ltr
  MH150785             JUNCTION     0.000    0.000     0  00:00           0           0       0.000 ltr
  MH150786             JUNCTION     0.000    0.000     0  00:00           0           0       0.000 ltr
  MH150787             JUNCTION     0.000    0.000     0  00:00           0           0       0.000 ltr
  MH150788             JUNCTION     0.000    0.000     0  00:00           0           0       0.000 ltr
  MH150789             JUNCTION     0.000    0.000     0  00:00           0           0       0.000 ltr
  MH150790             JUNCTION     0.000    0.000     0  00:00           0           0       0.000 ltr
  MH150791             JUNCTION     0.000    0.000     0  00:00           0           0       0.000 ltr
  MH150793             JUNCTION     0.000    0.000     0  00:00           0           0       0.000 ltr
  MH150795             JUNCTION     0.000    0.000     0  00:00           0           0       0.000 ltr
  MH150797             JUNCTION     0.000    0.000     0  00:00           0           0       0.000 ltr
  MH150798             JUNCTION     0.000    0.000     0  00:00           0           0       0.000 ltr
  MH151625             JUNCTION     0.000    0.000     0  00:00           0           0       0.000 ltr
  MH151626             JUNCTION     0.000    0.000     0  00:00           0           0       0.000 ltr
  MH151643             JUNCTION     0.000    0.000     0  00:00           0           0       0.000 ltr
  MH151644             JUNCTION     0.000    0.000     0  00:00           0           0       0.000 ltr
  MH151654             JUNCTION     0.000    0.000     0  00:00           0           0       0.000 ltr
  MH151655             JUNCTION     0.000    0.000     0  00:00           0           0       0.000 ltr
  MH151656             JUNCTION     0.000    0.000     0  00:00           0           0       0.000 ltr
  MH151657             JUNCTION     0.000    0.000     0  00:00           0           0       0.000 ltr
  MH151658             JUNCTION     0.000    0.000     0  00:00           0           0       0.000 ltr
  MH151659             JUNCTION     0.000    0.000     0  00:00           0           0       0.000 ltr
  MH151660             JUNCTION     0.000    0.000     0  00:00           0           0       0.000 ltr
  MH151661             JUNCTION     0.000    0.000     0  00:00           0           0       0.000 ltr
  MH151662             JUNCTION     0.000    0.000     0  00:00           0           0       0.000 ltr
  MH151663             JUNCTION     0.000    0.000     0  00:00           0           0       0.000 ltr
  MH151683             JUNCTION     0.000    0.000     0  00:00           0           0       0.000 ltr
  MH150863             OUTFALL      0.000    0.000     0  00:00           0           0       0.000 ltr
  
  
  **********************
  Node Surcharge Summary
  **********************
  
  No nodes were surcharged.
  
  
  *********************
  Node Flooding Summary
  *********************
  
  No nodes were flooded.
  
  
  ***********************
  Outfall Loading Summary
  ***********************
  
  -----------------------------------------------------------
                         Flow       Avg       Max       Total
                         Freq      Flow      Flow      Volume
  Outfall Node           Pcnt       CMS       CMS    10^6 ltr
  -----------------------------------------------------------
  MH150863               0.00     0.000     0.000       0.000
  -----------------------------------------------------------
  System                 0.00     0.000     0.000       0.000
  
  
  ********************
  Link Flow Summary
  ********************
  
  -----------------------------------------------------------------------------
                                 Maximum  Time of Max   Maximum    Max/    Max/
                                  |Flow|   Occurrence   |Veloc|    Full    Full
  Link                 Type          CMS  days hr:min     m/sec    Flow   Depth
  -----------------------------------------------------------------------------
  LS138801             CONDUIT     0.000     0  00:00      0.00    0.00    0.00
  LS144398             CONDUIT     0.000     0  00:00      0.00    0.00    0.00
  LS144399             CONDUIT     0.000     0  00:00      0.00    0.00    0.00
  LS144400             CONDUIT     0.000     0  00:00      0.00    0.00    0.00
  LS144404             CONDUIT     0.000     0  00:00      0.00    0.00    0.00
  LS144405             CONDUIT     0.000     0  00:00      0.00    0.00    0.00
  LS144406             CONDUIT     0.000     0  00:00      0.00    0.00    0.00
  LS144407             CONDUIT     0.000     0  00:00      0.00    0.00    0.00
  LS144408             CONDUIT     0.000     0  00:00      0.00    0.00    0.00
  LS144422             CONDUIT     0.000     0  00:00      0.00    0.00    0.00
  LS144469             CONDUIT     0.000     0  00:00      0.00    0.00    0.00
  LS144470             CONDUIT     0.000     0  00:00      0.00    0.00    0.00
  LS144471             CONDUIT     0.000     0  00:00      0.00    0.00    0.00
  LS144472             CONDUIT     0.000     0  00:00      0.00    0.00    0.00
  LS144473             CONDUIT     0.000     0  00:00      0.00    0.00    0.00
  LS144486             CONDUIT     0.000     0  00:00      0.00    0.00    0.00
  LS144554             CONDUIT     0.000     0  00:00      0.00    0.00    0.00
  LS144582             CONDUIT     0.000     0  00:00      0.00    0.00    0.00
  LS144646             CONDUIT     0.000     0  00:00      0.00    0.00    0.00
  LS144647             CONDUIT     0.000     0  00:00      0.00    0.00    0.00
  LS144648             CONDUIT     0.000     0  00:00      0.00    0.00    0.00
  LS144653             CONDUIT     0.000     0  00:00      0.00    0.00    0.00
  LS144733             CONDUIT     0.000     0  00:00      0.00    0.00    0.00
  LS148884             CONDUIT     0.000     0  00:00      0.00    0.00    0.00
  LS151623             CONDUIT     0.000     0  00:00      0.00    0.00    0.00
  LS151624             CONDUIT     0.000     0  00:00      0.00    0.00    0.00
  LS151625             CONDUIT     0.000     0  00:00      0.00    0.00    0.00
  LS151626             CONDUIT     0.000     0  00:00      0.00    0.00    0.00
  LS151627             CONDUIT     0.000     0  00:00      0.00    0.00    0.00
  LS151628             CONDUIT     0.000     0  00:00      0.00    0.00    0.00
  LS151629             CONDUIT     0.000     0  00:00      0.00    0.00    0.00
  LS151630             CONDUIT     0.000     0  00:00      0.00    0.00    0.00
  LS151631             CONDUIT     0.000     0  00:00      0.00    0.00    0.00
  LS151632             CONDUIT     0.000     0  00:00      0.00    0.00    0.00
  LS151633             CONDUIT     0.000     0  00:00      0.00    0.00    0.00
  LS151634             CONDUIT     0.000     0  00:00      0.00    0.00    0.00
  LS151635             CONDUIT     0.000     0  00:00      0.00    0.00    0.00
  LS151636             CONDUIT     0.000     0  00:00      0.00    0.00    0.00
  LS151637             CONDUIT     0.000     0  00:00      0.00    0.00    0.00
  LS151740             CONDUIT     0.000     0  00:00      0.00    0.00    0.00
  LS151741             CONDUIT     0.000     0  00:00      0.00    0.00    0.00
  LS151742             CONDUIT     0.000     0  00:00      0.00    0.00    0.00
  LS151747             CONDUIT     0.000     0  00:00      0.00    0.00    0.00
  LS151749             CONDUIT     0.000     0  00:00      0.00    0.00    0.00
  LS151750             CONDUIT     0.000     0  00:00      0.00    0.00    0.00
  LS151751             CONDUIT     0.000     0  00:00      0.00    0.00    0.00
  LS151752             CONDUIT     0.000     0  00:00      0.00    0.00    0.00
  LS151753             CONDUIT     0.000     0  00:00      0.00    0.00    0.00
  LS151754             CONDUIT     0.000     0  00:00      0.00    0.00    0.00
  LS151755             CONDUIT     0.000     0  00:00      0.00    0.00    0.00
  LS151756             CONDUIT     0.000     0  00:00      0.00    0.00    0.00
  LS151757             CONDUIT     0.000     0  00:00      0.00    0.00    0.00
  LS151758             CONDUIT     0.000     0  00:00      0.00    0.00    0.00
  LS151759             CONDUIT     0.000     0  00:00      0.00    0.00    0.00
  LS151760             CONDUIT     0.000     0  00:00      0.00    0.00    0.00
  LS151761             CONDUIT     0.000     0  00:00      0.00    0.00    0.00
  LS151762             CONDUIT     0.000     0  00:00      0.00    0.00    0.00
  LS151763             CONDUIT     0.000     0  00:00      0.00    0.00    0.00
  LS151764             CONDUIT     0.000     0  00:00      0.00    0.00    0.00
  LS151765             CONDUIT     0.000     0  00:00      0.00    0.00    0.00
  LS151766             CONDUIT     0.000     0  00:00      0.00    0.00    0.00
  LS151767             CONDUIT     0.000     0  00:00      0.00    0.00    0.00
  LS151768             CONDUIT     0.000     0  00:00      0.00    0.00    0.00
  LS151769             CONDUIT     0.000     0  00:00      0.00    0.00    0.00
  LS151770             CONDUIT     0.000     0  00:00      0.00    0.00    0.00
  LS151771             CONDUIT     0.000     0  00:00      0.00    0.00    0.00
  LS151772             CONDUIT     0.000     0  00:00      0.00    0.00    0.00
  LS151773             CONDUIT     0.000     0  00:00      0.00    0.00    0.00
  LS151774             CONDUIT     0.000     0  00:00      0.00    0.00    0.00
  LS151775             CONDUIT     0.000     0  00:00      0.00    0.00    0.00
  LS151776             CONDUIT     0.000     0  00:00      0.00    0.00    0.00
  LS151777             CONDUIT     0.000     0  00:00      0.00    0.00    0.00
  LS151778             CONDUIT     0.000     0  00:00      0.00    0.00    0.00
  LS151779             CONDUIT     0.000     0  00:00      0.00    0.00    0.00
  LS151780             CONDUIT     0.000     0  00:00      0.00    0.00    0.00
  LS151781             CONDUIT     0.000     0  00:00      0.00    0.00    0.00
  LS151782             CONDUIT     0.000     0  00:00      0.00    0.00    0.00
  LS151783             CONDUIT     0.000     0  00:00      0.00    0.00    0.00
  LS151784             CONDUIT     0.000     0  00:00      0.00    0.00    0.00
  LS151785             CONDUIT     0.000     0  00:00      0.00    0.00    0.00
  LS151786             CONDUIT     0.000     0  00:00      0.00    0.00    0.00
  LS151787             CONDUIT     0.000     0  00:00      0.00    0.00    0.00
  LS151788             CONDUIT     0.000     0  00:00      0.00    0.00    0.00
  LS151789             CONDUIT     0.000     0  00:00      0.00    0.00    0.00
  LS151790             CONDUIT     0.000     0  00:00      0.00    0.00    0.00
  LS151791             CONDUIT     0.000     0  00:00      0.00    0.00    0.00
  LS151792             CONDUIT     0.000     0  00:00      0.00    0.00    0.00
  LS151793             CONDUIT     0.000     0  00:00      0.00    0.00    0.00
  LS151794             CONDUIT     0.000     0  00:00      0.00    0.00    0.00
  LS151795             CONDUIT     0.000     0  00:00      0.00    0.00    0.00
  LS151796             CONDUIT     0.000     0  00:00      0.00    0.00    0.00
  LS151797             CONDUIT     0.000     0  00:00      0.00    0.00    0.00
  LS151798             CONDUIT     0.000     0  00:00      0.00    0.00    0.00
  LS151799             CONDUIT     0.000     0  00:00      0.00    0.00    0.00
  LS151800             CONDUIT     0.000     0  00:00      0.00    0.00    0.00
  LS151801             CONDUIT     0.000     0  00:00      0.00    0.00    0.00
  LS151802             CONDUIT     0.000     0  00:00      0.00    0.00    0.00
  LS151803             CONDUIT     0.000     0  00:00      0.00    0.00    0.00
  LS151804             CONDUIT     0.000     0  00:00      0.00    0.00    0.00
  LS151805             CONDUIT     0.000     0  00:00      0.00    0.00    0.00
  LS151806             CONDUIT     0.000     0  00:00      0.00    0.00    0.00
  LS151807             CONDUIT     0.000     0  00:00      0.00    0.00    0.00
  LS151808             CONDUIT     0.000     0  00:00      0.00    0.00    0.00
  LS151809             CONDUIT     0.000     0  00:00      0.00    0.00    0.00
  LS151810             CONDUIT     0.000     0  00:00      0.00    0.00    0.00
  LS151812             CONDUIT     0.000     0  00:00      0.00    0.00    0.00
  LS151814             CONDUIT     0.000     0  00:00      0.00    0.00    0.00
  LS151816             CONDUIT     0.000     0  00:00      0.00    0.00    0.00
  LS151818             CONDUIT     0.000     0  00:00      0.00    0.00    0.00
  LS151819             CONDUIT     0.000     0  00:00      0.00    0.00    0.00
  LS152639             CONDUIT     0.000     0  00:00      0.00    0.00    0.00
  LS152656             CONDUIT     0.000     0  00:00      0.00    0.00    0.00
  LS152657             CONDUIT     0.000     0  00:00      0.00    0.00    0.00
  LS152659             CONDUIT     0.000     0  00:00      0.00    0.00    0.00
  LS152667             CONDUIT     0.000     0  00:00      0.00    0.00    0.00
  LS152668             CONDUIT     0.000     0  00:00      0.00    0.00    0.00
  LS152669             CONDUIT     0.000     0  00:00      0.00    0.00    0.00
  LS152670             CONDUIT     0.000     0  00:00      0.00    0.00    0.00
  LS152671             CONDUIT     0.000     0  00:00      0.00    0.00    0.00
  LS152672             CONDUIT     0.000     0  00:00      0.00    0.00    0.00
  LS152673             CONDUIT     0.000     0  00:00      0.00    0.00    0.00
  LS152674             CONDUIT     0.000     0  00:00      0.00    0.00    0.00
  LS152675             CONDUIT     0.000     0  00:00      0.00    0.00    0.00
  LS152676             CONDUIT     0.000     0  00:00      0.00    0.00    0.00
  LS152698             CONDUIT     0.000     0  00:00      0.00    0.00    0.00
  LS153167             CONDUIT     0.000     0  00:00      0.00    0.00    0.00
  LS153175             CONDUIT     0.000     0  00:00      0.00    0.00    0.00
  LS153176             CONDUIT     0.000     0  00:00      0.00    0.00    0.00
  LS153177             CONDUIT     0.000     0  00:00      0.00    0.00    0.00
  LS153179             CONDUIT     0.000     0  00:00      0.00    0.00    0.00
  LS153182             CONDUIT     0.000     0  00:00      0.00    0.00    0.00
  LS153183             CONDUIT     0.000     0  00:00      0.00    0.00    0.00
  LS153184             CONDUIT     0.000     0  00:00      0.00    0.00    0.00
  LS153185             CONDUIT     0.000     0  00:00      0.00    0.00    0.00
  LS153186             CONDUIT     0.000     0  00:00      0.00    0.00    0.00
  LS153187             CONDUIT     0.000     0  00:00      0.00    0.00    0.00
  LS153195             CONDUIT     0.000     0  00:00      0.00    0.00    0.00
  LS153200             CONDUIT     0.000     0  00:00      0.00    0.00    0.00
  
  
  ***************************
  Flow Classification Summary
  ***************************
  
  -------------------------------------------------------------------------------------
                      Adjusted    ---------- Fraction of Time in Flow Class ---------- 
                       /Actual         Up    Down  Sub   Sup   Up    Down  Norm  Inlet 
  Conduit               Length    Dry  Dry   Dry   Crit  Crit  Crit  Crit  Ltd   Ctrl  
  -------------------------------------------------------------------------------------
  LS138801                1.00   1.00  0.00  0.00  0.00  0.00  0.00  0.00  0.00  0.00
  LS144398                1.00   1.00  0.00  0.00  0.00  0.00  0.00  0.00  0.00  0.00
  LS144399                1.00   1.00  0.00  0.00  0.00  0.00  0.00  0.00  0.00  0.00
  LS144400                1.00   1.00  0.00  0.00  0.00  0.00  0.00  0.00  0.00  0.00
  LS144404                1.00   1.00  0.00  0.00  0.00  0.00  0.00  0.00  0.00  0.00
  LS144405                1.00   1.00  0.00  0.00  0.00  0.00  0.00  0.00  0.00  0.00
  LS144406                1.00   1.00  0.00  0.00  0.00  0.00  0.00  0.00  0.00  0.00
  LS144407                1.00   1.00  0.00  0.00  0.00  0.00  0.00  0.00  0.00  0.00
  LS144408                1.00   1.00  0.00  0.00  0.00  0.00  0.00  0.00  0.00  0.00
  LS144422                1.00   1.00  0.00  0.00  0.00  0.00  0.00  0.00  0.00  0.00
  LS144469                1.00   1.00  0.00  0.00  0.00  0.00  0.00  0.00  0.00  0.00
  LS144470                1.00   1.00  0.00  0.00  0.00  0.00  0.00  0.00  0.00  0.00
  LS144471                1.00   1.00  0.00  0.00  0.00  0.00  0.00  0.00  0.00  0.00
  LS144472                1.00   1.00  0.00  0.00  0.00  0.00  0.00  0.00  0.00  0.00
  LS144473                1.00   1.00  0.00  0.00  0.00  0.00  0.00  0.00  0.00  0.00
  LS144486                1.00   1.00  0.00  0.00  0.00  0.00  0.00  0.00  0.00  0.00
  LS144554                1.00   1.00  0.00  0.00  0.00  0.00  0.00  0.00  0.00  0.00
  LS144582                1.00   1.00  0.00  0.00  0.00  0.00  0.00  0.00  0.00  0.00
  LS144646                1.00   1.00  0.00  0.00  0.00  0.00  0.00  0.00  0.00  0.00
  LS144647                1.00   1.00  0.00  0.00  0.00  0.00  0.00  0.00  0.00  0.00
  LS144648                1.00   1.00  0.00  0.00  0.00  0.00  0.00  0.00  0.00  0.00
  LS144653                1.00   1.00  0.00  0.00  0.00  0.00  0.00  0.00  0.00  0.00
  LS144733                1.00   1.00  0.00  0.00  0.00  0.00  0.00  0.00  0.00  0.00
  LS148884                1.00   1.00  0.00  0.00  0.00  0.00  0.00  0.00  0.00  0.00
  LS151623                1.00   1.00  0.00  0.00  0.00  0.00  0.00  0.00  0.00  0.00
  LS151624                1.00   1.00  0.00  0.00  0.00  0.00  0.00  0.00  0.00  0.00
  LS151625                1.00   1.00  0.00  0.00  0.00  0.00  0.00  0.00  0.00  0.00
  LS151626                1.00   1.00  0.00  0.00  0.00  0.00  0.00  0.00  0.00  0.00
  LS151627                1.00   1.00  0.00  0.00  0.00  0.00  0.00  0.00  0.00  0.00
  LS151628                1.00   1.00  0.00  0.00  0.00  0.00  0.00  0.00  0.00  0.00
  LS151629                1.00   1.00  0.00  0.00  0.00  0.00  0.00  0.00  0.00  0.00
  LS151630                1.00   1.00  0.00  0.00  0.00  0.00  0.00  0.00  0.00  0.00
  LS151631                1.00   1.00  0.00  0.00  0.00  0.00  0.00  0.00  0.00  0.00
  LS151632                1.00   1.00  0.00  0.00  0.00  0.00  0.00  0.00  0.00  0.00
  LS151633                1.00   1.00  0.00  0.00  0.00  0.00  0.00  0.00  0.00  0.00
  LS151634                1.00   1.00  0.00  0.00  0.00  0.00  0.00  0.00  0.00  0.00
  LS151635                1.00   1.00  0.00  0.00  0.00  0.00  0.00  0.00  0.00  0.00
  LS151636                1.00   1.00  0.00  0.00  0.00  0.00  0.00  0.00  0.00  0.00
  LS151637                1.00   1.00  0.00  0.00  0.00  0.00  0.00  0.00  0.00  0.00
  LS151740                1.00   1.00  0.00  0.00  0.00  0.00  0.00  0.00  0.00  0.00
  LS151741                1.00   1.00  0.00  0.00  0.00  0.00  0.00  0.00  0.00  0.00
  LS151742                1.00   1.00  0.00  0.00  0.00  0.00  0.00  0.00  0.00  0.00
  LS151747                1.00   1.00  0.00  0.00  0.00  0.00  0.00  0.00  0.00  0.00
  LS151749                1.00   1.00  0.00  0.00  0.00  0.00  0.00  0.00  0.00  0.00
  LS151750                1.00   1.00  0.00  0.00  0.00  0.00  0.00  0.00  0.00  0.00
  LS151751                1.00   1.00  0.00  0.00  0.00  0.00  0.00  0.00  0.00  0.00
  LS151752                1.00   1.00  0.00  0.00  0.00  0.00  0.00  0.00  0.00  0.00
  LS151753                1.00   1.00  0.00  0.00  0.00  0.00  0.00  0.00  0.00  0.00
  LS151754                1.00   1.00  0.00  0.00  0.00  0.00  0.00  0.00  0.00  0.00
  LS151755                1.00   1.00  0.00  0.00  0.00  0.00  0.00  0.00  0.00  0.00
  LS151756                1.00   1.00  0.00  0.00  0.00  0.00  0.00  0.00  0.00  0.00
  LS151757                1.00   1.00  0.00  0.00  0.00  0.00  0.00  0.00  0.00  0.00
  LS151758                1.00   1.00  0.00  0.00  0.00  0.00  0.00  0.00  0.00  0.00
  LS151759                1.00   1.00  0.00  0.00  0.00  0.00  0.00  0.00  0.00  0.00
  LS151760                1.00   1.00  0.00  0.00  0.00  0.00  0.00  0.00  0.00  0.00
  LS151761                1.00   1.00  0.00  0.00  0.00  0.00  0.00  0.00  0.00  0.00
  LS151762                1.00   1.00  0.00  0.00  0.00  0.00  0.00  0.00  0.00  0.00
  LS151763                1.00   1.00  0.00  0.00  0.00  0.00  0.00  0.00  0.00  0.00
  LS151764                1.00   1.00  0.00  0.00  0.00  0.00  0.00  0.00  0.00  0.00
  LS151765                1.00   1.00  0.00  0.00  0.00  0.00  0.00  0.00  0.00  0.00
  LS151766                1.00   1.00  0.00  0.00  0.00  0.00  0.00  0.00  0.00  0.00
  LS151767                1.00   1.00  0.00  0.00  0.00  0.00  0.00  0.00  0.00  0.00
  LS151768                1.00   1.00  0.00  0.00  0.00  0.00  0.00  0.00  0.00  0.00
  LS151769                1.00   1.00  0.00  0.00  0.00  0.00  0.00  0.00  0.00  0.00
  LS151770                1.00   1.00  0.00  0.00  0.00  0.00  0.00  0.00  0.00  0.00
  LS151771                1.00   1.00  0.00  0.00  0.00  0.00  0.00  0.00  0.00  0.00
  LS151772                1.00   1.00  0.00  0.00  0.00  0.00  0.00  0.00  0.00  0.00
  LS151773                1.00   1.00  0.00  0.00  0.00  0.00  0.00  0.00  0.00  0.00
  LS151774                1.00   1.00  0.00  0.00  0.00  0.00  0.00  0.00  0.00  0.00
  LS151775                1.00   1.00  0.00  0.00  0.00  0.00  0.00  0.00  0.00  0.00
  LS151776                1.00   1.00  0.00  0.00  0.00  0.00  0.00  0.00  0.00  0.00
  LS151777                1.00   1.00  0.00  0.00  0.00  0.00  0.00  0.00  0.00  0.00
  LS151778                1.00   1.00  0.00  0.00  0.00  0.00  0.00  0.00  0.00  0.00
  LS151779                1.00   1.00  0.00  0.00  0.00  0.00  0.00  0.00  0.00  0.00
  LS151780                1.00   1.00  0.00  0.00  0.00  0.00  0.00  0.00  0.00  0.00
  LS151781                1.00   1.00  0.00  0.00  0.00  0.00  0.00  0.00  0.00  0.00
  LS151782                1.00   1.00  0.00  0.00  0.00  0.00  0.00  0.00  0.00  0.00
  LS151783                1.00   1.00  0.00  0.00  0.00  0.00  0.00  0.00  0.00  0.00
  LS151784                1.00   1.00  0.00  0.00  0.00  0.00  0.00  0.00  0.00  0.00
  LS151785                1.00   1.00  0.00  0.00  0.00  0.00  0.00  0.00  0.00  0.00
  LS151786                1.00   1.00  0.00  0.00  0.00  0.00  0.00  0.00  0.00  0.00
  LS151787                1.00   1.00  0.00  0.00  0.00  0.00  0.00  0.00  0.00  0.00
  LS151788                1.00   1.00  0.00  0.00  0.00  0.00  0.00  0.00  0.00  0.00
  LS151789                1.00   1.00  0.00  0.00  0.00  0.00  0.00  0.00  0.00  0.00
  LS151790                1.00   1.00  0.00  0.00  0.00  0.00  0.00  0.00  0.00  0.00
  LS151791                1.00   1.00  0.00  0.00  0.00  0.00  0.00  0.00  0.00  0.00
  LS151792                1.00   1.00  0.00  0.00  0.00  0.00  0.00  0.00  0.00  0.00
  LS151793                1.00   1.00  0.00  0.00  0.00  0.00  0.00  0.00  0.00  0.00
  LS151794                1.00   1.00  0.00  0.00  0.00  0.00  0.00  0.00  0.00  0.00
  LS151795                1.00   1.00  0.00  0.00  0.00  0.00  0.00  0.00  0.00  0.00
  LS151796                1.00   1.00  0.00  0.00  0.00  0.00  0.00  0.00  0.00  0.00
  LS151797                1.00   1.00  0.00  0.00  0.00  0.00  0.00  0.00  0.00  0.00
  LS151798                1.00   1.00  0.00  0.00  0.00  0.00  0.00  0.00  0.00  0.00
  LS151799                1.00   1.00  0.00  0.00  0.00  0.00  0.00  0.00  0.00  0.00
  LS151800                1.00   1.00  0.00  0.00  0.00  0.00  0.00  0.00  0.00  0.00
  LS151801                1.00   1.00  0.00  0.00  0.00  0.00  0.00  0.00  0.00  0.00
  LS151802                1.00   1.00  0.00  0.00  0.00  0.00  0.00  0.00  0.00  0.00
  LS151803                1.00   1.00  0.00  0.00  0.00  0.00  0.00  0.00  0.00  0.00
  LS151804                1.00   1.00  0.00  0.00  0.00  0.00  0.00  0.00  0.00  0.00
  LS151805                1.00   1.00  0.00  0.00  0.00  0.00  0.00  0.00  0.00  0.00
  LS151806                1.00   1.00  0.00  0.00  0.00  0.00  0.00  0.00  0.00  0.00
  LS151807                1.00   1.00  0.00  0.00  0.00  0.00  0.00  0.00  0.00  0.00
  LS151808                1.00   1.00  0.00  0.00  0.00  0.00  0.00  0.00  0.00  0.00
  LS151809                1.00   1.00  0.00  0.00  0.00  0.00  0.00  0.00  0.00  0.00
  LS151810                1.00   1.00  0.00  0.00  0.00  0.00  0.00  0.00  0.00  0.00
  LS151812                1.00   1.00  0.00  0.00  0.00  0.00  0.00  0.00  0.00  0.00
  LS151814                1.00   1.00  0.00  0.00  0.00  0.00  0.00  0.00  0.00  0.00
  LS151816                1.00   1.00  0.00  0.00  0.00  0.00  0.00  0.00  0.00  0.00
  LS151818                1.00   1.00  0.00  0.00  0.00  0.00  0.00  0.00  0.00  0.00
  LS151819                1.00   1.00  0.00  0.00  0.00  0.00  0.00  0.00  0.00  0.00
  LS152639                1.00   1.00  0.00  0.00  0.00  0.00  0.00  0.00  0.00  0.00
  LS152656                1.00   1.00  0.00  0.00  0.00  0.00  0.00  0.00  0.00  0.00
  LS152657                1.00   1.00  0.00  0.00  0.00  0.00  0.00  0.00  0.00  0.00
  LS152659                1.00   1.00  0.00  0.00  0.00  0.00  0.00  0.00  0.00  0.00
  LS152667                1.00   1.00  0.00  0.00  0.00  0.00  0.00  0.00  0.00  0.00
  LS152668                1.00   1.00  0.00  0.00  0.00  0.00  0.00  0.00  0.00  0.00
  LS152669                1.00   1.00  0.00  0.00  0.00  0.00  0.00  0.00  0.00  0.00
  LS152670                1.00   1.00  0.00  0.00  0.00  0.00  0.00  0.00  0.00  0.00
  LS152671                1.00   1.00  0.00  0.00  0.00  0.00  0.00  0.00  0.00  0.00
  LS152672                1.00   1.00  0.00  0.00  0.00  0.00  0.00  0.00  0.00  0.00
  LS152673                1.00   1.00  0.00  0.00  0.00  0.00  0.00  0.00  0.00  0.00
  LS152674                1.00   1.00  0.00  0.00  0.00  0.00  0.00  0.00  0.00  0.00
  LS152675                1.00   1.00  0.00  0.00  0.00  0.00  0.00  0.00  0.00  0.00
  LS152676                1.00   1.00  0.00  0.00  0.00  0.00  0.00  0.00  0.00  0.00
  LS152698                1.00   1.00  0.00  0.00  0.00  0.00  0.00  0.00  0.00  0.00
  LS153167                1.00   1.00  0.00  0.00  0.00  0.00  0.00  0.00  0.00  0.00
  LS153175                1.00   1.00  0.00  0.00  0.00  0.00  0.00  0.00  0.00  0.00
  LS153176                1.00   1.00  0.00  0.00  0.00  0.00  0.00  0.00  0.00  0.00
  LS153177                1.00   1.00  0.00  0.00  0.00  0.00  0.00  0.00  0.00  0.00
  LS153179                1.00   1.00  0.00  0.00  0.00  0.00  0.00  0.00  0.00  0.00
  LS153182                1.00   1.00  0.00  0.00  0.00  0.00  0.00  0.00  0.00  0.00
  LS153183                1.00   1.00  0.00  0.00  0.00  0.00  0.00  0.00  0.00  0.00
  LS153184                1.00   1.00  0.00  0.00  0.00  0.00  0.00  0.00  0.00  0.00
  LS153185                1.00   1.00  0.00  0.00  0.00  0.00  0.00  0.00  0.00  0.00
  LS153186                1.00   1.00  0.00  0.00  0.00  0.00  0.00  0.00  0.00  0.00
  LS153187                1.00   1.00  0.00  0.00  0.00  0.00  0.00  0.00  0.00  0.00
  LS153195                1.00   1.00  0.00  0.00  0.00  0.00  0.00  0.00  0.00  0.00
  LS153200                1.00   1.00  0.00  0.00  0.00  0.00  0.00  0.00  0.00  0.00
  
  
  *************************
  Conduit Surcharge Summary
  *************************
  
  No conduits were surcharged.
  

  Analysis begun on:  Fri Mar  6 14:54:42 2026
  Analysis ended on:  Fri Mar  6 14:54:43 2026
  Total elapsed time: 00:00:01