
  EPA STORM WATER MANAGEMENT MODEL - VERSION 5.2 (Build 5.2.4)
  ------------------------------------------------------------

  
  ERROR 110: ground elevation is below water table for Subcatchment 264.
  
  ERROR 110: ground elevation is below water table for Subcatchment 282.
  
  ERROR 110: ground elevation is below water table for Subcatchment 283.
  
  ERROR 110: ground elevation is below water table for Subcatchment 289.
  
  ERROR 110: ground elevation is below water table for Subcatchment 295.
  
  ERROR 110: ground elevation is below water table for Subcatchment 300.
  
  ERROR 110: ground elevation is below water table for Subcatchment 301.
  
  ERROR 110: ground elevation is below water table for Subcatchment 306.
  
  ERROR 110: ground elevation is below water table for Subcatchment 309.
  
  ERROR 110: ground elevation is below water table for Subcatchment 313.
  
  ERROR 110: ground elevation is below water table for Subcatchment 318.
  
  ERROR 110: ground elevation is below water table for Subcatchment 322.
  
  ERROR 110: ground elevation is below water table for Subcatchment 323.
  
  ERROR 110: ground elevation is below water table for Subcatchment 324.
  
  ERROR 110: ground elevation is below water table for Subcatchment 326.
  
  ERROR 110: ground elevation is below water table for Subcatchment 327.
  
  ERROR 110: ground elevation is below water table for Subcatchment 332.
  
  ERROR 110: ground elevation is below water table for Subcatchment 333.
  
  ERROR 110: ground elevation is below water table for Subcatchment 335.
  
  ERROR 110: ground elevation is below water table for Subcatchment 337.
  
  ERROR 110: ground elevation is below water table for Subcatchment 338.
  
  ERROR 110: ground elevation is below water table for Subcatchment 339.
  
  ERROR 110: ground elevation is below water table for Subcatchment 340.
  
  ERROR 110: ground elevation is below water table for Subcatchment 341.
  
  ERROR 110: ground elevation is below water table for Subcatchment 342.
  
  ERROR 110: ground elevation is below water table for Subcatchment 343.
  
  ERROR 110: ground elevation is below water table for Subcatchment 344.
  
  ERROR 110: ground elevation is below water table for Subcatchment 345.
  
  ERROR 110: ground elevation is below water table for Subcatchment 347.
  
  ERROR 110: ground elevation is below water table for Subcatchment 348.
  
  ERROR 110: ground elevation is below water table for Subcatchment 349.
  
  ERROR 110: ground elevation is below water table for Subcatchment 351.
  
  ERROR 110: ground elevation is below water table for Subcatchment 352.
  
  ERROR 110: ground elevation is below water table for Subcatchment 353.
  
  ERROR 110: ground elevation is below water table for Subcatchment 354.

  Analysis begun on:  Fri Mar  6 14:54:44 2026
  Analysis ended on:  Fri Mar  6 14:54:44 2026
  Total elapsed time: < 1 sec