
  EPA STORM WATER MANAGEMENT MODEL - VERSION 5.2 (Build 5.2.4)
  ------------------------------------------------------------

  Z.IND+FRAZIONI SDF - pozz. 674 
  WARNING 04: minimum elevation drop used for Conduit 94-95
  WARNING 04: minimum elevation drop used for Conduit 104-105
  WARNING 04: minimum elevation drop used for Conduit 140-C
  
  ****************
  Analysis Options
  ****************
  Flow Units ............... LPS
  Process Models:
    Rainfall/Runoff ........ NO
    RDII ................... NO
    Snowmelt ............... NO
    Groundwater ............ NO
    Flow Routing ........... YES
    Ponding Allowed ........ NO
    Water Quality .......... YES
  Flow Routing Method ...... DYNWAVE
  Surcharge Method ......... EXTRAN
  Starting Date ............ 02/07/2014 00:00:00
  Ending Date .............. 02/08/2014 00:00:00
  Antecedent Dry Days ...... 0.0
  Report Time Step ......... 00:10:00
  Routing Time Step ........ 2.00 sec
  Variable Time Step ....... YES
  Maximum Trials ........... 8
  Number of Threads ........ 1
  Head Tolerance ........... 0.001524 m
  
  
  **************************        Volume        Volume
  Flow Routing Continuity        hectare-m      10^6 ltr
  **************************     ---------     ---------
  Dry Weather Inflow .......         0.022         0.220
  Wet Weather Inflow .......         0.000         0.000
  Groundwater Inflow .......         0.000         0.000
  RDII Inflow ..............         0.000         0.000
  External Inflow ..........         0.001         0.005
  External Outflow .........         0.020         0.196
  Flooding Loss ............         0.000         0.000
  Evaporation Loss .........         0.000         0.000
  Exfiltration Loss ........         0.000         0.000
  Initial Stored Volume ....         0.000         0.000
  Final Stored Volume ......         0.003         0.032
  Continuity Error (%) .....        -0.829
  
  
  **************************         Zinco
  Quality Routing Continuity            kg
  **************************    ----------
  Dry Weather Inflow .......         0.000
  Wet Weather Inflow .......         0.000
  Groundwater Inflow .......         0.000
  RDII Inflow ..............         0.000
  External Inflow ..........         0.526
  External Outflow .........         0.592
  Flooding Loss ............         0.000
  Exfiltration Loss ........         0.000
  Mass Reacted .............         0.000
  Initial Stored Mass ......         0.000
  Final Stored Mass ........         0.002
  Continuity Error (%) .....       -12.915
  
  
  *************************
  Highest Continuity Errors
  *************************
  Node 690 (4.17%)
  Node 76 (-3.01%)
  Node 75 (2.78%)
  Node 112 (2.42%)
  Node 22 (2.06%)
  
  
  ***************************
  Time-Step Critical Elements
  ***************************
  None
  
  
  ********************************
  Highest Flow Instability Indexes
  ********************************
  All links are stable.
  
  
  *********************************
  Most Frequent Nonconverging Nodes
  *********************************
  Convergence obtained at all time steps.
  
  
  *************************
  Routing Time Step Summary
  *************************
  Minimum Time Step           :     0.50 sec
  Average Time Step           :     2.00 sec
  Maximum Time Step           :     2.00 sec
  % of Time in Steady State   :     0.00
  Average Iterations per Step :     2.00
  % of Steps Not Converging   :     0.00
  Time Step Frequencies       :
      2.000 -  1.516 sec      :   100.00 %
      1.516 -  1.149 sec      :     0.00 %
      1.149 -  0.871 sec      :     0.00 %
      0.871 -  0.660 sec      :     0.00 %
      0.660 -  0.500 sec      :     0.00 %
  
  
  ******************
  Node Depth Summary
  ******************
  
  ---------------------------------------------------------------------------------
                                 Average  Maximum  Maximum  Time of Max    Reported
                                   Depth    Depth      HGL   Occurrence   Max Depth
  Node                 Type       Meters   Meters   Meters  days hr:min      Meters
  ---------------------------------------------------------------------------------
  8                    JUNCTION     0.00     0.00    63.30     0  00:00        0.00
  9                    JUNCTION     0.00     0.00    63.08     0  00:00        0.00
  10                   JUNCTION     0.00     0.00    62.83     0  00:00        0.00
  11                   JUNCTION     0.01     0.01    62.83     0  00:00        0.01
  12                   JUNCTION     0.00     0.00    62.24     0  00:18        0.00
  13                   JUNCTION     0.01     0.01    62.12     0  00:28        0.01
  14                   JUNCTION     0.01     0.01    61.79     0  00:34        0.01
  15                   JUNCTION     0.01     0.01    61.54     0  00:35        0.01
  16                   JUNCTION     0.01     0.01    61.28     0  00:45        0.01
  17                   JUNCTION     0.01     0.01    61.01     0  00:44        0.01
  26                   JUNCTION     0.00     0.00    60.62     0  00:00        0.00
  27                   JUNCTION     0.00     0.00    60.25     0  00:00        0.00
  28                   JUNCTION     0.00     0.00    60.09     0  00:00        0.00
  29                   JUNCTION     0.00     0.00    60.03     0  00:04        0.00
  38                   JUNCTION     0.00     0.00    60.15     0  00:00        0.00
  39                   JUNCTION     0.00     0.00    60.08     0  00:00        0.00
  30                   JUNCTION     0.01     0.01    59.90     0  00:26        0.01
  31                   JUNCTION     0.01     0.01    59.83     0  00:52        0.01
  40                   JUNCTION     0.00     0.00    59.61     0  00:00        0.00
  32                   JUNCTION     0.00     0.00    59.47     0  00:55        0.00
  33                   JUNCTION     0.01     0.01    59.23     0  01:14        0.01
  34                   JUNCTION     0.01     0.01    59.20     0  01:37        0.01
  35                   JUNCTION     0.00     0.00    58.94     0  01:40        0.00
  44                   JUNCTION     0.00     0.00    59.08     0  00:00        0.00
  43                   JUNCTION     0.00     0.00    59.33     0  00:00        0.00
  42                   JUNCTION     0.00     0.00    59.64     0  00:00        0.00
  41                   JUNCTION     0.00     0.00    59.78     0  00:00        0.00
  18                   JUNCTION     0.01     0.01    60.73     0  00:54        0.01
  19                   JUNCTION     0.01     0.01    60.37     0  01:08        0.01
  20                   JUNCTION     0.01     0.01    59.90     0  01:08        0.01
  21                   JUNCTION     0.01     0.01    59.80     0  01:14        0.01
  22                   JUNCTION     0.05     0.05    59.76     0  05:23        0.05
  23                   JUNCTION     0.01     0.01    59.76     0  05:24        0.01
  24                   JUNCTION     0.01     0.01    59.43     0  05:28        0.01
  36                   JUNCTION     0.00     0.00    58.84     0  01:45        0.00
  37                   JUNCTION     0.10     0.10    58.59     0  01:45        0.10
  25                   JUNCTION     0.02     0.02    58.52     0  02:17        0.02
  46                   JUNCTION     0.01     0.01    58.34     0  02:14        0.01
  47                   JUNCTION     0.01     0.01    58.16     0  01:48        0.01
  48                   JUNCTION     0.01     0.01    57.94     0  02:31        0.01
  49                   JUNCTION     0.01     0.01    57.74     0  22:43        0.01
  50                   JUNCTION     0.01     0.01    57.63     0  02:37        0.01
  51                   JUNCTION     0.01     0.01    57.10     0  22:50        0.01
  112                  JUNCTION     0.01     0.01    57.23     0  15:01        0.01
  111                  JUNCTION     0.00     0.00    57.47     0  00:42        0.00
  110                  JUNCTION     0.00     0.00    57.64     0  00:31        0.00
  109                  JUNCTION     0.00     0.00    57.81     0  00:20        0.00
  108                  JUNCTION     0.00     0.00    57.96     0  00:07        0.00
  52                   JUNCTION     0.01     0.01    56.93     0  02:08        0.01
  53                   JUNCTION     0.01     0.01    56.79     0  20:14        0.01
  54                   JUNCTION     0.01     0.01    56.56     0  22:59        0.01
  55                   JUNCTION     0.01     0.01    56.41     0  23:03        0.01
  56                   JUNCTION     0.01     0.01    55.96     0  23:04        0.01
  57                   JUNCTION     0.01     0.01    55.89     0  23:09        0.01
  58                   JUNCTION     0.01     0.01    55.77     0  23:13        0.01
  59                   JUNCTION     0.01     0.01    55.68     0  23:15        0.01
  60                   JUNCTION     0.01     0.01    55.67     0  23:19        0.01
  122                  JUNCTION     0.01     0.01    55.97     0  13:17        0.01
  121                  JUNCTION     0.00     0.00    56.04     0  02:29        0.00
  120                  JUNCTION     0.01     0.01    56.07     0  01:59        0.01
  119                  JUNCTION     0.00     0.00    56.18     0  05:24        0.00
  118                  JUNCTION     0.00     0.00    56.35     0  00:58        0.00
  117                  JUNCTION     0.01     0.01    56.56     0  00:46        0.01
  116                  JUNCTION     0.00     0.01    56.69     0  00:15        0.01
  115                  JUNCTION     0.00     0.00    56.76     0  00:07        0.00
  113                  JUNCTION     0.00     0.00    57.91     0  00:00        0.00
  114                  JUNCTION     0.00     0.00    56.91     0  00:00        0.00
  61                   JUNCTION     0.02     0.02    55.62     0  02:43        0.02
  62                   JUNCTION     0.01     0.01    55.41     0  02:45        0.01
  A                    JUNCTION     0.01     0.01    62.24     0  00:15        0.01
  665                  JUNCTION     0.01     0.01    52.85     0  06:39        0.01
  668                  JUNCTION     0.11     0.12    52.89     0  06:31        0.12
  669                  JUNCTION     0.03     0.03    52.92     0  06:23        0.03
  670                  JUNCTION     0.03     0.03    53.03     0  06:16        0.03
  671                  JUNCTION     0.02     0.03    53.26     0  06:18        0.03
  672                  JUNCTION     0.03     0.04    53.37     0  06:11        0.04
  673                  JUNCTION     0.03     0.03    53.50     0  06:16        0.03
  674                  JUNCTION     0.03     0.03    53.64     0  06:02        0.03
  701                  JUNCTION     0.00     0.00    53.94     0  00:00        0.00
  700                  JUNCTION     0.00     0.00    53.89     0  00:00        0.00
  699                  JUNCTION     0.01     0.01    53.77     0  01:05        0.01
  675                  JUNCTION     0.03     0.03    53.72     0  09:05        0.03
  676                  JUNCTION     0.03     0.03    53.81     0  06:06        0.03
  677                  JUNCTION     0.03     0.03    53.91     0  20:23        0.03
  678                  JUNCTION     0.04     0.04    53.96     0  21:00        0.04
  679                  JUNCTION     0.03     0.03    54.01     0  18:27        0.03
  680                  JUNCTION     0.03     0.03    54.11     0  23:34        0.03
  681                  JUNCTION     0.03     0.03    54.15     0  20:47        0.03
  682                  JUNCTION     0.02     0.02    54.33     0  21:36        0.02
  683                  JUNCTION     0.03     0.03    54.44     0  19:33        0.03
  684                  JUNCTION     0.01     0.01    55.92     0  19:58        0.01
  685                  JUNCTION     0.03     0.03    55.98     0  18:17        0.03
  697                  JUNCTION     0.00     0.00    56.50     0  00:00        0.00
  686                  JUNCTION     0.01     0.02    56.10     0  00:11        0.01
  687                  JUNCTION     0.02     0.02    56.20     0  00:05        0.02
  696                  JUNCTION     0.00     0.00    56.47     0  00:00        0.00
  688                  JUNCTION     0.01     0.01    56.36     0  17:38        0.01
  689                  JUNCTION     0.01     0.01    56.44     0  23:59        0.01
  690                  JUNCTION     0.02     0.02    56.58     0  18:49        0.02
  694                  JUNCTION     0.00     0.00    56.75     0  00:00        0.00
  695                  JUNCTION     0.00     0.00    56.78     0  00:00        0.00
  691                  JUNCTION     0.01     0.01    56.72     0  03:02        0.01
  692                  JUNCTION     0.00     0.00    56.84     0  00:00        0.00
  693                  JUNCTION     0.00     0.00    57.01     0  00:00        0.00
  63                   JUNCTION     0.01     0.01    54.55     0  18:01        0.01
  64                   JUNCTION     0.01     0.01    54.29     0  18:03        0.01
  65                   JUNCTION     0.01     0.01    54.10     0  03:00        0.01
  66                   JUNCTION     0.01     0.01    53.88     0  18:09        0.01
  67                   JUNCTION     0.01     0.02    53.64     0  03:09        0.02
  68                   JUNCTION     0.01     0.01    53.44     0  18:15        0.01
  69                   JUNCTION     0.01     0.02    53.10     0  03:19        0.02
  70                   JUNCTION     0.01     0.01    52.84     0  18:22        0.01
  71                   JUNCTION     0.02     0.02    52.21     0  18:26        0.02
  72                   JUNCTION     0.01     0.01    52.17     0  18:29        0.01
  73                   JUNCTION     0.01     0.01    51.93     0  15:07        0.01
  74                   JUNCTION     0.01     0.01    51.69     0  23:17        0.01
  75                   JUNCTION     0.02     0.04    51.41     0  08:35        0.04
  76                   JUNCTION     0.02     0.14    51.43     0  08:34        0.14
  77                   JUNCTION     0.02     0.12    51.28     0  06:40        0.11
  78                   JUNCTION     0.03     0.10    51.16     0  06:42        0.10
  79                   JUNCTION     0.04     0.10    51.08     0  09:16        0.10
  80                   JUNCTION     0.03     0.07    51.02     0  08:41        0.07
  81                   JUNCTION     0.02     0.06    50.91     0  06:48        0.06
  82                   JUNCTION     0.03     0.07    50.77     0  06:50        0.07
  83                   JUNCTION     0.03     0.07    50.70     0  06:53        0.06
  84                   JUNCTION     0.03     0.06    50.58     0  06:54        0.06
  85                   JUNCTION     0.03     0.07    50.48     0  06:57        0.06
  86                   JUNCTION     0.03     0.06    50.39     0  04:29        0.06
  87                   JUNCTION     0.03     0.06    50.16     0  07:42        0.06
  88                   JUNCTION     0.02     0.05    50.08     0  07:05        0.05
  89                   JUNCTION     0.03     0.05    49.92     0  09:02        0.05
  90                   JUNCTION     0.04     0.07    49.82     0  04:39        0.07
  91                   JUNCTION     0.04     0.07    49.79     0  07:52        0.07
  92                   JUNCTION     0.03     0.04    49.73     0  07:54        0.04
  93                   JUNCTION     0.04     0.05    49.55     0  07:56        0.05
  94                   JUNCTION     0.06     0.08    49.47     0  07:58        0.08
  95                   JUNCTION     0.03     0.04    49.43     0  07:59        0.04
  96                   JUNCTION     0.04     0.05    49.25     0  08:01        0.05
  97                   JUNCTION     0.06     0.08    49.21     0  08:02        0.08
  98                   JUNCTION     0.03     0.04    49.19     0  08:03        0.04
  99                   JUNCTION     0.03     0.04    48.89     0  08:04        0.04
  100                  JUNCTION     0.04     0.05    48.68     0  08:05        0.05
  101                  JUNCTION     0.04     0.05    48.57     0  08:06        0.05
  102                  JUNCTION     0.03     0.04    48.45     0  08:08        0.04
  103                  JUNCTION     0.06     0.08    47.73     0  08:12        0.08
  145                  JUNCTION     0.02     0.03    47.73     0  08:12        0.03
  104                  JUNCTION     0.05     0.06    47.72     0  08:13        0.06
  105                  JUNCTION     0.02     0.03    47.69     0  08:14        0.03
  106                  JUNCTION     0.03     0.04    47.55     0  09:35        0.04
  143                  JUNCTION     0.01     0.01    50.39     0  00:32        0.01
  142                  JUNCTION     0.01     0.01    50.47     0  00:19        0.01
  141                  JUNCTION     0.01     0.01    50.60     0  00:10        0.01
  140                  JUNCTION     0.00     0.00    50.75     0  00:00        0.00
  139                  JUNCTION     0.02     0.02    50.06     0  21:28        0.02
  138                  JUNCTION     0.03     0.03    50.19     0  06:30        0.03
  137                  JUNCTION     0.02     0.02    50.34     0  11:32        0.02
  136                  JUNCTION     0.03     0.03    50.57     0  23:19        0.03
  135                  JUNCTION     0.02     0.02    50.74     0  22:07        0.02
  134                  JUNCTION     0.01     0.01    51.76     0  12:19        0.01
  133                  JUNCTION     0.02     0.02    52.03     0  05:36        0.02
  132                  JUNCTION     0.03     0.03    52.10     0  06:39        0.03
  131                  JUNCTION     0.02     0.02    52.21     0  05:15        0.02
  130                  JUNCTION     0.02     0.02    52.45     0  03:51        0.02
  129                  JUNCTION     0.02     0.02    52.69     0  03:32        0.02
  128                  JUNCTION     0.01     0.02    52.89     0  00:26        0.02
  127                  JUNCTION     0.02     0.02    52.99     0  00:15        0.02
  126                  JUNCTION     0.01     0.01    53.25     0  00:05        0.01
  125                  JUNCTION     0.00     0.00    54.15     0  00:00        0.00
  124                  JUNCTION     0.00     0.00    54.96     0  00:00        0.00
  123                  JUNCTION     0.00     0.00    55.23     0  00:00        0.00
  C                    JUNCTION     0.00     0.00    50.41     0  00:00        0.00
  B                    JUNCTION     0.01     0.01    55.24     0  02:47        0.01
  ae                   OUTFALL      0.00     0.00    55.23     0  00:00        0.00
  an                   OUTFALL      0.00     0.00    52.69     0  00:00        0.00
  af                   OUTFALL      0.00     0.00    50.32     0  00:00        0.00
  107a                 OUTFALL      0.01     0.01    46.97     0  09:35        0.01
  667                  STORAGE      0.90     1.16    52.33     0  06:38        1.16
  
  
  *******************
  Node Inflow Summary
  *******************
  
  -------------------------------------------------------------------------------------------------
                                  Maximum  Maximum                  Lateral       Total        Flow
                                  Lateral    Total  Time of Max      Inflow      Inflow     Balance
                                   Inflow   Inflow   Occurrence      Volume      Volume       Error
  Node                 Type           LPS      LPS  days hr:min    10^6 ltr    10^6 ltr     Percent
  -------------------------------------------------------------------------------------------------
  8                    JUNCTION      0.00     0.00     0  00:00           0           0       0.000 ltr
  9                    JUNCTION      0.00     0.00     0  00:00           0           0       0.000 ltr
  10                   JUNCTION      0.00     0.00     0  00:00           0           0       0.000 ltr
  11                   JUNCTION      0.11     0.11     0  00:00      0.0095      0.0095       0.016
  12                   JUNCTION      0.00     0.01     0  00:18           0    2.37e-05      -0.130 ltr
  13                   JUNCTION      0.00     0.12     0  00:21           0     0.00947       0.361
  14                   JUNCTION      0.02     0.13     0  00:28     0.00173      0.0112       0.292
  15                   JUNCTION      0.00     0.13     0  00:34           0      0.0111       0.347
  16                   JUNCTION      0.00     0.13     0  00:39           0      0.0111       0.308
  17                   JUNCTION      0.00     0.13     0  00:45           0      0.0111       0.269
  26                   JUNCTION      0.00     0.00     0  00:00           0           0       0.000 ltr
  27                   JUNCTION      0.00     0.00     0  00:00           0           0       0.000 ltr
  28                   JUNCTION      0.00     0.00     0  00:00           0           0       0.000 ltr
  29                   JUNCTION      0.03     0.03     0  00:00     0.00259     0.00259       0.104
  38                   JUNCTION      0.00     0.00     0  00:00           0           0       0.000 ltr
  39                   JUNCTION      0.00     0.00     0  00:00           0           0       0.000 ltr
  30                   JUNCTION      0.00     0.03     0  00:05           0     0.00259       0.601
  31                   JUNCTION      0.00     0.03     0  00:37           0     0.00257       0.642
  40                   JUNCTION      0.00     0.00     0  00:00           0           0       0.000 ltr
  32                   JUNCTION      0.00     0.03     0  00:52           0     0.00256       0.146
  33                   JUNCTION      0.00     0.03     0  00:55           0     0.00255       1.216
  34                   JUNCTION      0.00     0.03     0  01:24           0     0.00252       0.621
  35                   JUNCTION      0.00     0.03     0  01:37           0     0.00251       0.255
  44                   JUNCTION      0.00     0.00     0  00:00           0           0       0.000 ltr
  43                   JUNCTION      0.00     0.00     0  00:00           0           0       0.000 ltr
  42                   JUNCTION      0.00     0.00     0  00:00           0           0       0.000 ltr
  41                   JUNCTION      0.00     0.00     0  00:00           0           0       0.000 ltr
  18                   JUNCTION      0.00     0.14     0  00:48           0       0.011       0.269
  19                   JUNCTION      0.00     0.13     0  00:54           0       0.011       0.495
  20                   JUNCTION      0.00     0.13     0  01:08           0      0.0109       0.241
  21                   JUNCTION      0.00     0.13     0  01:11           0      0.0109       0.170
  22                   JUNCTION      0.00     0.13     0  01:01           0      0.0109       2.102
  23                   JUNCTION      0.02     0.15     0  05:21     0.00173      0.0124       0.317
  24                   JUNCTION      0.00     0.15     0  05:24           0      0.0124       0.770
  36                   JUNCTION      0.00     0.03     0  01:42           0      0.0025       0.179
  37                   JUNCTION      0.00     0.03     0  01:45           0      0.0025       0.432
  25                   JUNCTION      0.00     0.18     0  02:14           0      0.0148       0.201
  46                   JUNCTION      0.00     0.18     0  02:17           0      0.0147       0.318
  47                   JUNCTION      0.00     0.18     0  02:20           0      0.0147       0.254
  48                   JUNCTION      0.00     0.18     0  02:26           0      0.0146       0.259
  49                   JUNCTION      0.00     0.18     0  02:31           0      0.0146       0.369
  50                   JUNCTION      0.00     0.18     0  02:36           0      0.0145       0.214
  51                   JUNCTION      0.00     0.20     0  22:48           0      0.0162       0.137
  112                  JUNCTION      0.00     0.02     0  00:42           0     0.00171       2.477
  111                  JUNCTION      0.00     0.02     0  00:36           0     0.00171       0.295
  110                  JUNCTION      0.00     0.02     0  00:27           0     0.00172       0.394
  109                  JUNCTION      0.00     0.02     0  00:13           0     0.00173       0.508
  108                  JUNCTION      0.02     0.02     0  00:00     0.00173     0.00173       0.127
  52                   JUNCTION      0.00     0.20     0  14:43           0      0.0162       0.230
  53                   JUNCTION      0.00     0.20     0  17:29           0      0.0161       0.226
  54                   JUNCTION      0.03     0.23     0  14:49     0.00259      0.0187       0.241
  55                   JUNCTION      0.00     0.23     0  14:52           0      0.0186       0.358
  56                   JUNCTION      0.00     0.23     0  14:56           0      0.0186       0.190
  57                   JUNCTION      0.00     0.23     0  17:42           0      0.0185       0.247
  58                   JUNCTION      0.00     0.23     0  15:03           0      0.0185       0.280
  59                   JUNCTION      0.00     0.23     0  15:06           0      0.0184       0.181
  60                   JUNCTION      0.00     0.26     0  15:08           0      0.0209       0.300
  122                  JUNCTION      0.00     0.03     0  02:29           0     0.00249       1.141
  121                  JUNCTION      0.00     0.03     0  02:14           0     0.00251       0.504
  120                  JUNCTION      0.00     0.03     0  03:21           0     0.00254       1.363
  119                  JUNCTION      0.00     0.03     0  00:58           0     0.00255       0.349
  118                  JUNCTION      0.00     0.03     0  00:47           0     0.00255       0.128
  117                  JUNCTION      0.00     0.04     0  00:20           0     0.00258       1.103
  116                  JUNCTION      0.00     0.03     0  00:08           0     0.00259       0.254
  115                  JUNCTION      0.03     0.03     0  00:00     0.00259     0.00259       0.189
  113                  JUNCTION      0.00     0.00     0  00:00           0           0       0.000 ltr
  114                  JUNCTION      0.00     0.00     0  00:00           0           0       0.000 ltr
  61                   JUNCTION      0.00     0.26     0  20:36           0      0.0208       0.964
  62                   JUNCTION      0.00     0.28     0  02:45           0      0.0206       0.040
  A                    JUNCTION      0.00     0.14     0  02:05           0     0.00953       0.375
  665                  JUNCTION      0.00     1.58     0  06:31           0      0.0944       0.008
  668                  JUNCTION      0.00     1.59     0  06:23           0      0.0956       1.258
  669                  JUNCTION      0.00     1.59     0  06:19           0      0.0958       0.235
  670                  JUNCTION      0.00     1.58     0  06:18           0       0.096       0.221
  671                  JUNCTION      0.00     1.58     0  06:14           0      0.0962       0.181
  672                  JUNCTION      0.00     1.58     0  06:16           0      0.0964       0.240
  673                  JUNCTION      0.00     1.61     0  06:03           0      0.0966       0.199
  674                  JUNCTION      0.50     1.62     0  06:01     0.00543      0.0967       0.105
  701                  JUNCTION      0.00     0.00     0  00:00           0           0       0.000 ltr
  700                  JUNCTION      0.00     0.00     0  00:00           0           0       0.000 ltr
  699                  JUNCTION      0.17     0.17     0  00:00      0.0147      0.0147       0.161
  675                  JUNCTION      0.00     0.93     0  09:03           0      0.0767       0.113
  676                  JUNCTION      0.00     0.91     0  19:06           0      0.0769       0.198
  677                  JUNCTION      0.00     0.91     0  20:09           0       0.077       0.146
  678                  JUNCTION      0.00     0.91     0  18:22           0      0.0771       0.218
  679                  JUNCTION      0.00     0.91     0  17:11           0      0.0773       0.159
  680                  JUNCTION      0.16     0.91     0  19:34      0.0138      0.0774       0.124
  681                  JUNCTION      0.00     0.75     0  18:22           0      0.0637       0.283
  682                  JUNCTION      0.00     0.75     0  23:11           0      0.0639       0.220
  683                  JUNCTION      0.20     0.75     0  18:58      0.0173      0.0639       0.122
  684                  JUNCTION      0.20     0.55     0  18:53      0.0173      0.0467       0.024
  685                  JUNCTION      0.00     0.35     0  17:46           0      0.0298       1.485
  697                  JUNCTION      0.00     0.00     0  00:00           0           0       0.000 ltr
  686                  JUNCTION      0.00     0.35     0  19:04           0      0.0299       0.272
  687                  JUNCTION      0.25     0.35     0  17:36      0.0216      0.0299       0.122
  696                  JUNCTION      0.00     0.00     0  00:00           0           0       0.000 ltr
  688                  JUNCTION      0.00     0.10     0  17:35           0     0.00841       0.735
  689                  JUNCTION      0.05     0.10     0  18:51     0.00432     0.00843       0.198
  690                  JUNCTION      0.00     0.05     0  03:02           0     0.00429       4.354
  694                  JUNCTION      0.00     0.00     0  00:00           0           0       0.000 ltr
  695                  JUNCTION      0.00     0.00     0  00:00           0           0       0.000 ltr
  691                  JUNCTION      0.05     0.05     0  00:00     0.00432     0.00432       0.800
  692                  JUNCTION      0.00     0.00     0  00:00           0           0       0.000 ltr
  693                  JUNCTION      0.00     0.00     0  00:00           0           0       0.000 ltr
  63                   JUNCTION      0.00     0.27     0  02:47           0      0.0206       0.364
  64                   JUNCTION      0.00     0.26     0  15:19           0      0.0205       0.308
  65                   JUNCTION      0.00     0.26     0  20:46           0      0.0204       0.289
  66                   JUNCTION      0.00     0.26     0  18:07           0      0.0204       0.284
  67                   JUNCTION      0.00     0.26     0  18:09           0      0.0203       0.340
  68                   JUNCTION      0.00     0.26     0  23:37           0      0.0202       0.326
  69                   JUNCTION      0.00     0.26     0  18:15           0      0.0202       0.406
  70                   JUNCTION      0.00     0.26     0  18:19           0      0.0201       0.416
  71                   JUNCTION      0.02     0.28     0  15:40     0.00173      0.0217       0.712
  72                   JUNCTION      0.00     0.28     0  23:52           0      0.0216       0.251
  73                   JUNCTION      0.00     0.28     0  15:47           0      0.0215       0.299
  74                   JUNCTION      0.00     0.28     0  15:08           0      0.0215       0.274
  75                   JUNCTION      0.00     5.47     0  08:34           0      0.0274       2.864
  76                   JUNCTION      0.00    40.33     0  08:33           0       0.112      -2.920
  77                   JUNCTION      0.00    34.44     0  08:34           0       0.109       0.656
  78                   JUNCTION      0.00    18.94     0  06:41           0       0.108       0.581
  79                   JUNCTION      0.00    11.39     0  06:43           0       0.108       0.980
  80                   JUNCTION      0.00     7.69     0  07:23           0       0.106       0.557
  81                   JUNCTION      0.00     6.72     0  08:41           0       0.106       0.282
  82                   JUNCTION      0.00     6.33     0  06:48           0       0.106       0.283
  83                   JUNCTION      0.00     5.81     0  06:51           0       0.105       0.481
  84                   JUNCTION      0.00     5.56     0  06:53           0       0.105       0.582
  85                   JUNCTION      0.00     5.39     0  06:55           0       0.104       0.578
  86                   JUNCTION      0.00     4.82     0  06:58           0       0.104       0.640
  87                   JUNCTION      0.00     4.34     0  09:34           0       0.103       1.196
  88                   JUNCTION      0.00     3.67     0  08:58           0       0.102       0.135
  89                   JUNCTION      0.00     3.65     0  08:59           0       0.102       0.085
  90                   JUNCTION      0.00     3.40     0  09:02           0       0.101       0.113
  91                   JUNCTION      0.00     3.15     0  09:05           0       0.101       0.447
  92                   JUNCTION      0.09     3.98     0  07:53     0.00778       0.194       0.149
  93                   JUNCTION      0.00     3.93     0  07:54           0       0.194       0.122
  94                   JUNCTION      0.00     3.89     0  07:56           0       0.194       0.240
  95                   JUNCTION      0.00     3.83     0  07:58           0       0.193       0.077
  96                   JUNCTION      0.00     3.82     0  07:59           0       0.193       0.151
  97                   JUNCTION      0.00     3.79     0  08:01           0       0.193       0.233
  98                   JUNCTION      0.00     3.84     0  08:02           0         0.2       0.075
  99                   JUNCTION      0.00     3.83     0  08:03           0         0.2       0.121
  100                  JUNCTION      0.00     3.82     0  08:04           0         0.2       0.328
  101                  JUNCTION      0.00     3.81     0  08:05           0       0.199       0.079
  102                  JUNCTION      0.00     3.80     0  08:07           0       0.199       0.160
  103                  JUNCTION      0.00     3.77     0  08:08           0         0.2       0.326
  145                  JUNCTION      0.00     0.14     0  04:58           0     0.00138       5.079
  104                  JUNCTION      0.00     3.63     0  08:11           0       0.198       0.296
  105                  JUNCTION      0.00     3.60     0  08:13           0       0.197       0.109
  106                  JUNCTION      0.00     3.59     0  08:14           0       0.197       0.590
  143                  JUNCTION      0.00     0.10     0  00:25           0     0.00772       0.377
  142                  JUNCTION      0.00     0.11     0  00:12           0     0.00775       0.473
  141                  JUNCTION      0.09     0.09     0  00:00     0.00778     0.00778       0.300
  140                  JUNCTION      0.00     0.00     0  00:00           0           0       0.000 ltr
  139                  JUNCTION      0.00     1.01     0  06:03           0      0.0855       0.129
  138                  JUNCTION      0.09     1.01     0  04:10     0.00778      0.0857       0.208
  137                  JUNCTION      0.00     0.92     0  07:12           0       0.078       0.100
  136                  JUNCTION      0.00     0.92     0  03:32           0      0.0782       0.225
  135                  JUNCTION      0.00     0.92     0  05:58           0      0.0782       0.062
  134                  JUNCTION      0.00     0.92     0  17:23           0      0.0783       0.072
  133                  JUNCTION      0.00     0.92     0  20:34           0      0.0785       0.229
  132                  JUNCTION      0.28     0.92     0  04:39      0.0242      0.0786       0.244
  131                  JUNCTION      0.00     0.64     0  03:51           0      0.0545       0.135
  130                  JUNCTION      0.00     0.64     0  03:33           0      0.0548       0.415
  129                  JUNCTION      0.28     0.65     0  00:26      0.0242      0.0551       0.557
  128                  JUNCTION      0.05     0.38     0  00:20     0.00432       0.031       0.322
  127                  JUNCTION      0.00     0.34     0  00:07           0      0.0267       0.402
  126                  JUNCTION      0.31     0.31     0  00:00      0.0268      0.0268       0.127
  125                  JUNCTION      0.00     0.00     0  00:00           0           0       0.000 ltr
  124                  JUNCTION      0.00     0.00     0  00:00           0           0       0.000 ltr
  123                  JUNCTION      0.00     0.00     0  00:00           0           0       0.000 ltr
  C                    JUNCTION      0.00     0.00     0  00:00           0           0       0.000 ltr
  B                    JUNCTION      0.00     0.28     0  02:45           0      0.0206       0.207
  ae                   OUTFALL       0.00     0.00     0  00:00           0           0       0.000 ltr
  an                   OUTFALL       0.00     0.00     0  00:00           0           0       0.000 ltr
  af                   OUTFALL       0.00     0.00     0  00:00           0           0       0.000 ltr
  107a                 OUTFALL       0.00     3.44     0  09:35           0       0.196       0.000
  667                  STORAGE       0.00     1.72     0  06:39           0      0.0944      -0.007
  
  
  **********************
  Node Surcharge Summary
  **********************
  
  No nodes were surcharged.
  
  
  *********************
  Node Flooding Summary
  *********************
  
  No nodes were flooded.
  
  
  **********************
  Storage Volume Summary
  **********************
  
  ------------------------------------------------------------------------------------------------
                         Average    Avg   Evap  Exfil     Maximum    Max    Time of Max    Maximum
                          Volume   Pcnt   Pcnt   Pcnt      Volume   Pcnt     Occurrence    Outflow
  Storage Unit           1000 mł   Full   Loss   Loss     1000 mł   Full    days hr:min        LPS
  ------------------------------------------------------------------------------------------------
  667                      0.009   27.3    0.0    0.0       0.012   35.4       0  06:38      40.00
  
  
  ***********************
  Outfall Loading Summary
  ***********************
  
  -------------------------------------------------------------------------
                         Flow       Avg       Max       Total         Total
                         Freq      Flow      Flow      Volume         Zinco
  Outfall Node           Pcnt       LPS       LPS    10^6 ltr            kg
  -------------------------------------------------------------------------
  ae                     0.00      0.00      0.00       0.000         0.000
  an                     0.00      0.00      0.00       0.000         0.000
  af                     0.00      0.00      0.00       0.000         0.000
  107a                  96.06      2.36      3.44       0.196         0.592
  -------------------------------------------------------------------------
  System                24.01      2.36      3.44       0.196         0.592
  
  
  ********************
  Link Flow Summary
  ********************
  
  -----------------------------------------------------------------------------
                                 Maximum  Time of Max   Maximum    Max/    Max/
                                  |Flow|   Occurrence   |Veloc|    Full    Full
  Link                 Type          LPS  days hr:min     m/sec    Flow   Depth
  -----------------------------------------------------------------------------
  8-9                  CONDUIT      0.00     0  00:00      0.00    0.00    0.00
  9-10                 CONDUIT      0.00     0  00:00      0.00    0.00    0.00
  10-11                CONDUIT      0.00     0  00:00      0.00    0.00    0.00
  11-A                 CONDUIT      0.12     0  00:01      0.43    0.00    0.02
  12-A                 CONDUIT      0.03     0  00:18      0.05    0.00    0.02
  A-13                 CONDUIT      0.12     0  00:21      0.12    0.00    0.02
  13-14                CONDUIT      0.11     0  00:28      0.17    0.00    0.02
  14-15                CONDUIT      0.13     0  00:34      0.16    0.00    0.01
  15-16                CONDUIT      0.13     0  00:39      0.16    0.00    0.01
  16-17                CONDUIT      0.13     0  00:45      0.17    0.00    0.01
  17-18                CONDUIT      0.14     0  00:48      0.18    0.00    0.01
  18-19                CONDUIT      0.13     0  00:54      0.17    0.00    0.01
  19-20                CONDUIT      0.13     0  01:08      0.27    0.00    0.01
  20-21                CONDUIT      0.13     0  01:11      0.12    0.00    0.01
  21-22                CONDUIT      0.13     0  01:14      0.04    0.00    0.03
  22-23                CONDUIT      0.13     0  05:21      0.03    0.00    0.04
  23-24                CONDUIT      0.15     0  05:24      0.15    0.00    0.01
  24-25                CONDUIT      0.15     0  10:53      0.22    0.00    0.01
  26-27                CONDUIT      0.00     0  00:00      0.00    0.00    0.00
  27-28                CONDUIT      0.00     0  00:00      0.00    0.00    0.00
  28-29                CONDUIT      0.00     0  00:00      0.00    0.00    0.01
  38-39                CONDUIT      0.00     0  00:00      0.00    0.00    0.00
  39-29                CONDUIT      0.00     0  00:00      0.00    0.00    0.00
  29-30                CONDUIT      0.03     0  00:05      0.13    0.00    0.02
  30-31                CONDUIT      0.03     0  00:37      0.08    0.00    0.02
  31-32                CONDUIT      0.03     0  00:52      0.20    0.00    0.01
  40-32                CONDUIT      0.00     0  00:00      0.00    0.00    0.00
  32-33                CONDUIT      0.03     0  00:55      0.09    0.00    0.02
  33-34                CONDUIT      0.03     0  01:24      0.06    0.00    0.02
  34-35                CONDUIT      0.03     0  01:37      0.19    0.00    0.01
  41-42                CONDUIT      0.00     0  00:00      0.00    0.00    0.00
  42-43                CONDUIT      0.00     0  00:00      0.00    0.00    0.00
  43-44                CONDUIT      0.00     0  00:00      0.00    0.00    0.00
  44-35                CONDUIT      0.00     0  00:00      0.00    0.00    0.00
  35-36                CONDUIT      0.03     0  01:42      0.09    0.00    0.01
  36-37                CONDUIT      0.03     0  01:45      0.00    0.00    0.00
  37-25                CONDUIT      0.03     0  01:45      0.03    0.00    0.01
  25-46                CONDUIT      0.18     0  02:17      0.15    0.00    0.01
  46-47                CONDUIT      0.18     0  02:20      0.16    0.00    0.01
  47-48                CONDUIT      0.18     0  02:26      0.17    0.00    0.01
  48-49                CONDUIT      0.18     0  02:31      0.14    0.00    0.02
  49-50                CONDUIT      0.18     0  02:36      0.15    0.00    0.01
  50-51                CONDUIT      0.18     0  02:40      0.22    0.00    0.01
  108-109              CONDUIT      0.02     0  00:13      0.09    0.00    0.01
  109-110              CONDUIT      0.02     0  00:27      0.09    0.00    0.01
  110-111              CONDUIT      0.02     0  00:36      0.10    0.00    0.01
  111-112              CONDUIT      0.02     0  00:42      0.08    0.00    0.02
  112-51               CONDUIT      0.02     0  15:29      0.06    0.00    0.01
  51-52                CONDUIT      0.20     0  14:43      0.18    0.00    0.01
  52-53                CONDUIT      0.20     0  17:29      0.15    0.00    0.01
  53-54                CONDUIT      0.20     0  14:49      0.16    0.00    0.01
  54-55                CONDUIT      0.23     0  14:52      0.16    0.00    0.01
  55-56                CONDUIT      0.23     0  14:56      0.29    0.00    0.01
  56-57                CONDUIT      0.23     0  17:42      0.12    0.00    0.01
  57-58                CONDUIT      0.23     0  15:03      0.14    0.00    0.01
  58-59                CONDUIT      0.23     0  15:06      0.13    0.00    0.01
  59-60                CONDUIT      0.23     0  15:08      0.11    0.00    0.01
  113-114              CONDUIT      0.00     0  00:00      0.00    0.00    0.00
  114-115              CONDUIT      0.00     0  00:00      0.00    0.00    0.00
  115-116              CONDUIT      0.03     0  00:08      0.10    0.00    0.01
  116-117              CONDUIT      0.04     0  00:20      0.09    0.00    0.01
  117-118              CONDUIT      0.03     0  00:47      0.11    0.00    0.01
  118-119              CONDUIT      0.03     0  00:58      0.10    0.00    0.01
  119-120              CONDUIT      0.03     0  03:21      0.06    0.00    0.01
  120-121              CONDUIT      0.03     0  02:14      0.05    0.00    0.01
  121-122              CONDUIT      0.03     0  02:29      0.06    0.00    0.01
  122-60               CONDUIT      0.03     0  16:43      0.10    0.00    0.01
  60-61                CONDUIT      0.26     0  20:36      0.09    0.00    0.02
  61-62                CONDUIT      0.28     0  02:45      0.20    0.00    0.01
  62-ae                CONDUIT      0.00     0  00:00      0.00    0.00    0.00
  693-692              CONDUIT      0.00     0  00:00      0.00    0.00    0.00
  692-691              CONDUIT      0.00     0  00:00      0.00    0.00    0.02
  691-690              CONDUIT      0.05     0  03:02      0.13    0.00    0.03
  695-694              CONDUIT      0.00     0  00:00      0.00    0.00    0.00
  694-690              CONDUIT      0.00     0  00:00      0.00    0.00    0.00
  690-689              CONDUIT      0.05     0  18:51      0.07    0.00    0.03
  689-688              CONDUIT      0.10     0  17:35      0.10    0.00    0.02
  688-687              CONDUIT      0.10     0  17:36      0.19    0.00    0.01
  696-687              CONDUIT      0.00     0  00:00      0.00    0.00    0.00
  687-686              CONDUIT      0.35     0  19:04      0.17    0.00    0.03
  686-685              CONDUIT      0.35     0  17:46      0.18    0.00    0.04
  697-685              CONDUIT      0.00     0  00:00      0.00    0.00    0.00
  685-684              CONDUIT      0.35     0  18:53      0.12    0.00    0.03
  684-683              CONDUIT      0.55     0  18:58      0.45    0.00    0.02
  683-682              CONDUIT      0.75     0  23:11      0.22    0.00    0.02
  682-681              CONDUIT      0.75     0  18:22      0.23    0.00    0.02
  681-680              CONDUIT      0.75     0  19:34      0.18    0.00    0.03
  680-679              CONDUIT      0.91     0  17:11      0.24    0.00    0.03
  679-678              CONDUIT      0.91     0  18:22      0.19    0.00    0.03
  678-677              CONDUIT      0.91     0  20:09      0.20    0.00    0.03
  677-676              CONDUIT      0.91     0  19:06      0.23    0.00    0.03
  676-675              CONDUIT      0.93     0  09:03      0.32    0.00    0.02
  675-674              CONDUIT      0.95     0  06:01      0.27    0.00    0.02
  701-700              CONDUIT      0.00     0  00:00      0.00    0.00    0.00
  700-699              CONDUIT      0.00     0  00:00      0.00    0.00    0.01
  699-674              CONDUIT      0.17     0  01:05      0.30    0.00    0.01
  674-673              CONDUIT      1.61     0  06:03      0.30    0.00    0.02
  673-672              CONDUIT      1.58     0  06:16      0.27    0.00    0.03
  672-671              CONDUIT      1.58     0  06:14      0.28    0.00    0.03
  671-670              CONDUIT      1.58     0  06:18      0.30    0.00    0.02
  670-669              CONDUIT      1.59     0  06:19      0.27    0.00    0.03
  669-668              CONDUIT      1.59     0  06:23      0.09    0.00    0.06
  668-665              CONDUIT      1.58     0  06:31      0.09    0.00    0.05
  665-an               CONDUIT      0.00     0  00:00      0.00    0.00    0.00
  665-667              CONDUIT      1.72     0  06:39      2.06    0.01    0.39
  62-B                 CONDUIT      0.28     0  02:45      0.30    0.00    0.04
  B-63                 CONDUIT      0.27     0  02:47      0.27    0.00    0.04
  63-64                CONDUIT      0.26     0  15:19      0.22    0.00    0.05
  64-65                CONDUIT      0.26     0  20:46      0.21    0.00    0.05
  65-66                CONDUIT      0.26     0  18:07      0.22    0.00    0.05
  66-67                CONDUIT      0.26     0  18:09      0.20    0.00    0.05
  67-68                CONDUIT      0.26     0  23:37      0.21    0.00    0.05
  68-69                CONDUIT      0.26     0  18:15      0.21    0.00    0.05
  69-70                CONDUIT      0.26     0  18:19      0.22    0.00    0.05
  70-71                CONDUIT      0.26     0  15:40      0.15    0.00    0.06
  71-72                CONDUIT      0.28     0  23:52      0.14    0.01    0.07
  72-73                CONDUIT      0.28     0  15:47      0.22    0.00    0.05
  73-74                CONDUIT      0.28     0  15:08      0.23    0.00    0.05
  74-75                CONDUIT      0.28     0  20:35      0.22    0.00    0.09
  75-76                CONDUIT      5.19     0  08:34      0.23    0.03    0.17
  76-77                CONDUIT     34.44     0  08:34      0.97    0.17    0.25
  77-78                CONDUIT     18.94     0  06:41      0.80    0.12    0.19
  78-79                CONDUIT     11.39     0  06:43      0.52    0.08    0.18
  79-80                CONDUIT      7.69     0  07:23      0.36    0.09    0.17
  80-81                CONDUIT      6.72     0  08:41      0.46    0.04    0.13
  81-82                CONDUIT      6.33     0  06:48      0.48    0.03    0.13
  82-83                CONDUIT      5.81     0  06:51      0.38    0.04    0.13
  83-84                CONDUIT      5.56     0  06:53      0.41    0.03    0.12
  84-85                CONDUIT      5.39     0  06:55      0.40    0.03    0.12
  85-86                CONDUIT      4.82     0  06:58      0.40    0.03    0.12
  86-87                CONDUIT      4.34     0  09:34      0.37    0.03    0.11
  87-88                CONDUIT      3.67     0  08:58      0.34    0.02    0.10
  88-89                CONDUIT      3.65     0  08:59      0.41    0.02    0.09
  89-90                CONDUIT      3.40     0  09:02      0.34    0.02    0.11
  90-91                CONDUIT      3.15     0  09:05      0.24    0.03    0.13
  91-92                CONDUIT      2.88     0  07:53      0.25    0.03    0.11
  92-93                CONDUIT      3.93     0  07:54      0.42    0.01    0.07
  93-94                CONDUIT      3.89     0  07:56      0.26    0.01    0.10
  94-95                CONDUIT      3.83     0  07:58      0.28    0.19    0.10
  95-96                CONDUIT      3.82     0  07:59      0.39    0.01    0.08
  96-97                CONDUIT      3.79     0  08:01      0.23    0.02    0.11
  97-98                CONDUIT      3.75     0  08:02      0.26    0.02    0.10
  98-99                CONDUIT      3.83     0  08:03      0.50    0.01    0.06
  99-100               CONDUIT      3.82     0  08:04      0.40    0.01    0.07
  100-101              CONDUIT      3.81     0  08:05      0.40    0.01    0.07
  101-102              CONDUIT      3.80     0  08:07      0.42    0.01    0.07
  102-103              CONDUIT      3.77     0  08:08      0.53    0.01    0.06
  145-103              CONDUIT      0.14     0  04:58      0.01    0.00    0.03
  103-104              CONDUIT      3.63     0  08:11      0.12    0.00    0.04
  104-105              CONDUIT      3.60     0  08:13      0.21    0.01    0.03
  105-106              CONDUIT      3.59     0  08:14      0.33    0.00    0.02
  106-107a             CONDUIT      3.44     0  09:35      0.47    0.00    0.02
  C-af                 CONDUIT      0.00     0  00:00      0.00    0.00    0.00
  140-C                CONDUIT      0.00     0  00:00      0.00    0.00    0.00
  140-141              CONDUIT      0.00     0  00:00      0.00    0.00    0.02
  141-142              CONDUIT      0.11     0  00:12      0.15    0.00    0.04
  142-143              CONDUIT      0.10     0  00:25      0.12    0.00    0.04
  143-98               CONDUIT      0.10     0  00:32      0.21    0.00    0.02
  123-124              CONDUIT      0.00     0  00:00      0.00    0.00    0.00
  124-125              CONDUIT      0.00     0  00:00      0.00    0.00    0.00
  125-126              CONDUIT      0.00     0  00:00      0.00    0.00    0.00
  126-127              CONDUIT      0.34     0  00:07      0.27    0.00    0.03
  127-128              CONDUIT      0.33     0  00:20      0.17    0.00    0.03
  128-129              CONDUIT      0.37     0  00:26      0.15    0.00    0.03
  129-130              CONDUIT      0.64     0  03:33      0.30    0.00    0.03
  130-131              CONDUIT      0.64     0  03:51      0.29    0.00    0.03
  131-132              CONDUIT      0.64     0  04:39      0.16    0.00    0.04
  132-133              CONDUIT      0.92     0  20:34      0.21    0.00    0.04
  133-134              CONDUIT      0.92     0  17:23      0.37    0.00    0.03
  134-135              CONDUIT      0.92     0  05:58      0.97    0.00    0.05
  135-136              CONDUIT      0.92     0  03:32      0.32    0.01    0.08
  136-137              CONDUIT      0.92     0  07:12      0.35    0.01    0.08
  137-138              CONDUIT      0.92     0  04:10      0.24    0.01    0.07
  138-139              CONDUIT      1.01     0  06:03      0.30    0.01    0.06
  139-92               CONDUIT      1.01     0  04:00      0.38    0.01    0.08
  pompa667             PUMP        40.00     0  04:07              1.00
  
  
  ***************************
  Flow Classification Summary
  ***************************
  
  -------------------------------------------------------------------------------------
                      Adjusted    ---------- Fraction of Time in Flow Class ---------- 
                       /Actual         Up    Down  Sub   Sup   Up    Down  Norm  Inlet 
  Conduit               Length    Dry  Dry   Dry   Crit  Crit  Crit  Crit  Ltd   Ctrl  
  -------------------------------------------------------------------------------------
  8-9                     1.00   1.00  0.00  0.00  0.00  0.00  0.00  0.00  0.00  0.00
  9-10                    1.00   1.00  0.00  0.00  0.00  0.00  0.00  0.00  0.00  0.00
  10-11                   1.00   1.00  0.00  0.00  0.00  0.00  0.00  0.00  0.00  0.00
  11-A                    1.00   0.00  0.00  0.00  1.00  0.00  0.00  0.00  1.00  0.00
  12-A                    1.24   0.00  0.00  0.00  1.00  0.00  0.00  0.00  0.00  0.00
  A-13                    1.00   0.00  0.00  0.00  1.00  0.00  0.00  0.00  0.00  0.00
  13-14                   1.00   0.00  0.00  0.00  1.00  0.00  0.00  0.00  1.00  0.00
  14-15                   1.00   0.00  0.00  0.00  1.00  0.00  0.00  0.00  0.98  0.00
  15-16                   1.00   0.00  0.00  0.00  1.00  0.00  0.00  0.00  0.00  0.00
  16-17                   1.00   0.00  0.00  0.00  1.00  0.00  0.00  0.00  0.02  0.00
  17-18                   1.00   0.00  0.00  0.00  1.00  0.00  0.00  0.00  0.00  0.00
  18-19                   1.00   0.00  0.00  0.00  1.00  0.00  0.00  0.00  0.99  0.00
  19-20                   1.00   0.00  0.00  0.00  0.00  0.00  0.00  1.00  0.00  0.00
  20-21                   1.00   0.00  0.00  0.00  1.00  0.00  0.00  0.00  0.00  0.00
  21-22                   1.00   0.00  0.00  0.00  1.00  0.00  0.00  0.00  1.00  0.00
  22-23                   1.00   0.00  0.00  0.00  1.00  0.00  0.00  0.00  0.04  0.00
  23-24                   1.00   0.00  0.00  0.00  1.00  0.00  0.00  0.00  0.99  0.00
  24-25                   1.00   0.00  0.00  0.00  0.00  0.00  0.00  1.00  0.00  0.00
  26-27                   1.00   1.00  0.00  0.00  0.00  0.00  0.00  0.00  0.00  0.00
  27-28                   1.00   1.00  0.00  0.00  0.00  0.00  0.00  0.00  0.00  0.00
  28-29                   1.00   0.00  1.00  0.00  0.00  0.00  0.00  0.00  0.00  0.00
  38-39                   1.00   1.00  0.00  0.00  0.00  0.00  0.00  0.00  0.00  0.00
  39-29                   1.00   1.00  0.00  0.00  0.00  0.00  0.00  0.00  0.00  0.00
  29-30                   1.00   0.00  0.00  0.00  1.00  0.00  0.00  0.00  1.00  0.00
  30-31                   1.00   0.00  0.00  0.00  1.00  0.00  0.00  0.00  0.00  0.00
  31-32                   1.00   0.00  0.00  0.00  0.00  0.00  0.00  1.00  0.00  0.00
  40-32                   1.00   1.00  0.00  0.00  0.00  0.00  0.00  0.00  0.00  0.00
  32-33                   1.00   0.00  0.00  0.00  1.00  0.00  0.00  0.00  1.00  0.00
  33-34                   1.00   0.00  0.00  0.00  1.00  0.00  0.00  0.00  0.00  0.00
  34-35                   1.00   0.00  0.00  0.00  0.00  0.00  0.00  1.00  0.00  0.00
  41-42                   1.00   1.00  0.00  0.00  0.00  0.00  0.00  0.00  0.00  0.00
  42-43                   1.00   1.00  0.00  0.00  0.00  0.00  0.00  0.00  0.00  0.00
  43-44                   1.00   1.00  0.00  0.00  0.00  0.00  0.00  0.00  0.00  0.00
  44-35                   1.00   0.01  0.99  0.00  0.00  0.00  0.00  0.00  0.00  0.00
  35-36                   1.00   0.01  0.00  0.00  0.99  0.00  0.00  0.00  0.01  0.00
  36-37                   1.00   0.01  0.00  0.00  0.96  0.00  0.00  0.03  0.00  0.00
  37-25                   1.29   0.00  0.04  0.00  0.96  0.00  0.00  0.00  0.96  0.00
  25-46                   1.00   0.01  0.00  0.00  0.99  0.00  0.00  0.00  0.97  0.00
  46-47                   1.00   0.01  0.00  0.00  0.99  0.00  0.00  0.00  0.00  0.00
  47-48                   1.00   0.01  0.00  0.00  0.99  0.00  0.00  0.00  0.92  0.00
  48-49                   1.00   0.01  0.00  0.00  0.99  0.00  0.00  0.00  0.99  0.00
  49-50                   1.00   0.01  0.00  0.00  0.99  0.00  0.00  0.00  0.00  0.00
  50-51                   1.00   0.00  0.00  0.00  0.99  0.00  0.00  0.00  0.06  0.00
  108-109                 1.00   0.00  0.00  0.00  1.00  0.00  0.00  0.00  0.99  0.00
  109-110                 1.00   0.00  0.00  0.00  1.00  0.00  0.00  0.00  0.00  0.00
  110-111                 1.00   0.00  0.00  0.00  1.00  0.00  0.00  0.00  0.00  0.00
  111-112                 1.00   0.00  0.00  0.00  1.00  0.00  0.00  0.00  0.99  0.00
  112-51                  1.00   0.00  0.00  0.00  0.00  0.00  0.00  1.00  0.00  0.00
  51-52                   1.00   0.00  0.00  0.00  1.00  0.00  0.00  0.00  0.99  0.00
  52-53                   1.00   0.01  0.00  0.00  0.99  0.00  0.00  0.00  0.00  0.00
  53-54                   1.00   0.00  0.01  0.00  0.99  0.00  0.00  0.00  0.99  0.00
  54-55                   1.00   0.00  0.00  0.00  1.00  0.00  0.00  0.00  0.98  0.00
  55-56                   1.00   0.00  0.00  0.00  0.00  0.00  0.00  1.00  0.00  0.00
  56-57                   1.00   0.00  0.00  0.00  1.00  0.00  0.00  0.00  0.00  0.00
  57-58                   1.00   0.00  0.00  0.00  1.00  0.00  0.00  0.00  0.99  0.00
  58-59                   1.00   0.00  0.00  0.00  1.00  0.00  0.00  0.00  0.99  0.00
  59-60                   1.00   0.00  0.00  0.00  1.00  0.00  0.00  0.00  1.00  0.00
  113-114                 1.00   1.00  0.00  0.00  0.00  0.00  0.00  0.00  0.00  0.00
  114-115                 1.00   0.00  1.00  0.00  0.00  0.00  0.00  0.00  0.00  0.00
  115-116                 1.00   0.00  0.00  0.00  1.00  0.00  0.00  0.00  0.99  0.00
  116-117                 1.00   0.00  0.00  0.00  1.00  0.00  0.00  0.00  0.99  0.00
  117-118                 1.00   0.00  0.00  0.00  0.00  0.00  0.00  1.00  0.00  0.00
  118-119                 1.00   0.00  0.00  0.00  1.00  0.00  0.00  0.00  0.98  0.00
  119-120                 1.00   0.00  0.00  0.00  1.00  0.00  0.00  0.00  1.00  0.00
  120-121                 1.00   0.00  0.00  0.00  1.00  0.00  0.00  0.00  0.00  0.00
  121-122                 1.00   0.00  0.00  0.00  1.00  0.00  0.00  0.00  0.99  0.00
  122-60                  1.00   0.00  0.00  0.00  0.00  0.00  0.00  1.00  0.00  0.00
  60-61                   1.00   0.00  0.00  0.00  1.00  0.00  0.00  0.00  0.98  0.00
  61-62                   1.00   0.00  0.00  0.00  0.00  0.00  0.00  1.00  0.00  0.00
  62-ae                   1.00   1.00  0.00  0.00  0.00  0.00  0.00  0.00  0.00  0.00
  693-692                 1.00   1.00  0.00  0.00  0.00  0.00  0.00  0.00  0.00  0.00
  692-691                 1.00   0.00  1.00  0.00  0.00  0.00  0.00  0.00  0.00  0.00
  691-690                 1.00   0.00  0.00  0.00  0.00  0.00  0.00  1.00  0.00  0.00
  695-694                 1.00   1.00  0.00  0.00  0.00  0.00  0.00  0.00  0.00  0.00
  694-690                 1.00   1.00  0.00  0.00  0.00  0.00  0.00  0.00  0.00  0.00
  690-689                 1.00   0.00  0.00  0.00  0.00  0.00  0.00  1.00  0.00  0.00
  689-688                 1.00   0.00  0.00  0.00  1.00  0.00  0.00  0.00  0.99  0.00
  688-687                 1.00   0.00  0.00  0.00  0.00  0.00  0.00  1.00  0.00  0.00
  696-687                 1.00   1.00  0.00  0.00  0.00  0.00  0.00  0.00  0.00  0.00
  687-686                 1.00   0.00  0.00  0.00  1.00  0.00  0.00  0.00  0.00  0.00
  686-685                 1.00   0.00  0.00  0.00  1.00  0.00  0.00  0.00  0.99  0.00
  697-685                 1.00   1.00  0.00  0.00  0.00  0.00  0.00  0.00  0.00  0.00
  685-684                 1.00   0.00  0.00  0.00  0.00  0.00  0.00  1.00  0.00  0.00
  684-683                 1.00   0.00  0.00  0.00  0.00  0.00  0.00  1.00  0.00  0.00
  683-682                 1.00   0.00  0.00  0.00  1.00  0.00  0.00  0.00  0.00  0.00
  682-681                 1.00   0.00  0.00  0.00  1.00  0.00  0.00  0.00  0.99  0.00
  681-680                 1.00   0.00  0.00  0.00  1.00  0.00  0.00  0.00  0.01  0.00
  680-679                 1.00   0.00  0.00  0.00  1.00  0.00  0.00  0.00  0.99  0.00
  679-678                 1.00   0.00  0.00  0.00  1.00  0.00  0.00  0.00  0.99  0.00
  678-677                 1.00   0.00  0.00  0.00  1.00  0.00  0.00  0.00  0.00  0.00
  677-676                 1.00   0.00  0.00  0.00  1.00  0.00  0.00  0.00  0.99  0.00
  676-675                 1.00   0.00  0.00  0.00  0.99  0.00  0.00  0.01  0.00  0.00
  675-674                 1.00   0.00  0.00  0.00  1.00  0.00  0.00  0.00  0.00  0.00
  701-700                 1.00   1.00  0.00  0.00  0.00  0.00  0.00  0.00  0.00  0.00
  700-699                 1.00   0.00  1.00  0.00  0.00  0.00  0.00  0.00  0.00  0.00
  699-674                 1.00   0.00  0.00  0.00  0.00  0.00  0.00  1.00  0.00  0.00
  674-673                 1.00   0.00  0.00  0.00  1.00  0.00  0.00  0.00  0.98  0.00
  673-672                 1.00   0.00  0.00  0.00  1.00  0.00  0.00  0.00  0.99  0.00
  672-671                 1.00   0.00  0.00  0.00  1.00  0.00  0.00  0.00  0.00  0.00
  671-670                 1.00   0.00  0.00  0.00  1.00  0.00  0.00  0.00  0.99  0.00
  670-669                 1.00   0.00  0.00  0.00  1.00  0.00  0.00  0.00  0.01  0.00
  669-668                 1.00   0.00  0.00  0.00  1.00  0.00  0.00  0.00  0.99  0.00
  668-665                 1.00   0.01  0.04  0.00  0.00  0.00  0.96  0.00  0.00  0.00
  665-an                  1.00   1.00  0.00  0.00  0.00  0.00  0.00  0.00  0.00  0.00
  665-667                 3.92   0.04  0.00  0.00  0.24  0.09  0.00  0.63  0.33  0.00
  62-B                    1.00   0.00  0.00  0.00  0.10  0.89  0.00  0.00  0.88  0.00
  B-63                    1.00   0.00  0.00  0.00  1.00  0.00  0.00  0.00  0.98  0.00
  63-64                   1.00   0.00  0.00  0.00  1.00  0.00  0.00  0.00  0.94  0.00
  64-65                   1.00   0.01  0.00  0.00  0.99  0.00  0.00  0.00  0.01  0.00
  65-66                   1.00   0.01  0.00  0.00  0.99  0.00  0.00  0.00  0.00  0.00
  66-67                   1.00   0.01  0.00  0.00  0.99  0.00  0.00  0.00  0.98  0.00
  67-68                   1.00   0.01  0.00  0.00  0.99  0.00  0.00  0.00  0.00  0.00
  68-69                   1.00   0.01  0.00  0.00  0.99  0.00  0.00  0.00  0.98  0.00
  69-70                   1.00   0.02  0.00  0.00  0.98  0.00  0.00  0.00  0.00  0.00
  70-71                   1.00   0.00  0.02  0.00  0.98  0.00  0.00  0.00  0.98  0.00
  71-72                   1.00   0.00  0.00  0.00  1.00  0.00  0.00  0.00  0.00  0.00
  72-73                   1.00   0.00  0.00  0.00  1.00  0.00  0.00  0.00  0.91  0.00
  73-74                   1.00   0.00  0.00  0.00  1.00  0.00  0.00  0.00  0.00  0.00
  74-75                   1.00   0.00  0.00  0.00  1.00  0.00  0.00  0.00  0.97  0.00
  75-76                   1.00   0.01  0.00  0.00  0.99  0.00  0.00  0.00  0.20  0.00
  76-77                   1.00   0.01  0.00  0.00  0.98  0.02  0.00  0.00  0.96  0.00
  77-78                   1.00   0.01  0.00  0.00  0.98  0.01  0.00  0.00  0.85  0.00
  78-79                   1.00   0.01  0.00  0.00  0.99  0.00  0.00  0.00  0.93  0.00
  79-80                   1.00   0.01  0.00  0.00  0.99  0.00  0.00  0.00  0.00  0.00
  80-81                   1.00   0.01  0.00  0.00  0.99  0.00  0.00  0.00  0.27  0.00
  81-82                   1.00   0.01  0.00  0.00  0.99  0.00  0.00  0.00  0.91  0.00
  82-83                   1.00   0.01  0.00  0.00  0.99  0.00  0.00  0.00  0.44  0.00
  83-84                   1.00   0.01  0.00  0.00  0.99  0.00  0.00  0.00  0.67  0.00
  84-85                   1.00   0.02  0.00  0.00  0.98  0.00  0.00  0.00  0.86  0.00
  85-86                   1.00   0.02  0.00  0.00  0.98  0.00  0.00  0.00  0.64  0.00
  86-87                   1.00   0.02  0.00  0.00  0.98  0.00  0.00  0.00  0.84  0.00
  87-88                   1.00   0.02  0.00  0.00  0.98  0.00  0.00  0.00  0.00  0.00
  88-89                   1.00   0.02  0.00  0.00  0.98  0.00  0.00  0.00  0.82  0.00
  89-90                   1.00   0.02  0.00  0.00  0.98  0.00  0.00  0.00  0.95  0.00
  90-91                   1.00   0.02  0.00  0.00  0.98  0.00  0.00  0.00  0.63  0.00
  91-92                   1.00   0.00  0.02  0.00  0.98  0.00  0.00  0.00  0.17  0.00
  92-93                   1.00   0.00  0.00  0.00  1.00  0.00  0.00  0.00  0.99  0.00
  93-94                   1.00   0.00  0.00  0.00  1.00  0.00  0.00  0.00  0.99  0.00
  94-95                   1.00   0.00  0.00  0.00  1.00  0.00  0.00  0.00  0.00  0.00
  95-96                   1.00   0.00  0.00  0.00  1.00  0.00  0.00  0.00  0.99  0.00
  96-97                   1.00   0.00  0.00  0.00  1.00  0.00  0.00  0.00  1.00  0.00
  97-98                   1.00   0.00  0.00  0.00  1.00  0.00  0.00  0.00  0.02  0.00
  98-99                   1.00   0.00  0.00  0.00  1.00  0.00  0.00  0.00  0.78  0.00
  99-100                  1.00   0.00  0.00  0.00  1.00  0.00  0.00  0.00  0.99  0.00
  100-101                 1.00   0.00  0.00  0.00  0.67  0.00  0.00  0.33  0.00  0.00
  101-102                 1.00   0.01  0.00  0.00  0.99  0.00  0.00  0.00  0.00  0.00
  102-103                 1.00   0.01  0.00  0.00  0.00  0.00  0.00  0.99  0.00  0.00
  145-103                 1.00   0.01  0.05  0.00  0.95  0.00  0.00  0.00  0.00  0.00
  103-104                 1.00   0.01  0.02  0.00  0.97  0.00  0.00  0.00  0.00  0.00
  104-105                 1.00   0.03  0.00  0.00  0.97  0.00  0.00  0.00  0.00  0.00
  105-106                 1.00   0.03  0.00  0.00  0.97  0.00  0.00  0.00  0.97  0.00
  106-107a                1.00   0.03  0.00  0.00  0.18  0.79  0.00  0.00  0.00  0.00
  C-af                    1.00   1.00  0.00  0.00  0.00  0.00  0.00  0.00  0.00  0.00
  140-C                   1.00   1.00  0.00  0.00  0.00  0.00  0.00  0.00  0.00  0.00
  140-141                 1.00   0.00  1.00  0.00  0.00  0.00  0.00  0.00  0.00  0.00
  141-142                 1.00   0.00  0.00  0.00  1.00  0.00  0.00  0.00  0.99  0.00
  142-143                 1.00   0.00  0.00  0.00  1.00  0.00  0.00  0.00  0.00  0.00
  143-98                  1.00   0.00  0.00  0.00  0.00  0.00  0.00  1.00  0.00  0.00
  123-124                 1.00   1.00  0.00  0.00  0.00  0.00  0.00  0.00  0.00  0.00
  124-125                 1.00   1.00  0.00  0.00  0.00  0.00  0.00  0.00  0.00  0.00
  125-126                 1.00   1.00  0.00  0.00  0.00  0.00  0.00  0.00  0.00  0.00
  126-127                 1.00   0.00  0.00  0.00  1.00  0.00  0.00  0.00  0.99  0.00
  127-128                 1.00   0.00  0.00  0.00  1.00  0.00  0.00  0.00  0.00  0.00
  128-129                 1.00   0.00  0.00  0.00  1.00  0.00  0.00  0.00  1.00  0.00
  129-130                 1.00   0.00  0.00  0.00  0.00  0.00  0.00  1.00  0.00  0.00
  130-131                 1.00   0.00  0.00  0.00  0.00  0.00  0.00  1.00  0.00  0.00
  131-132                 1.00   0.00  0.00  0.00  1.00  0.00  0.00  0.00  1.00  0.00
  132-133                 1.00   0.00  0.00  0.00  1.00  0.00  0.00  0.00  0.00  0.00
  133-134                 1.00   0.00  0.00  0.00  0.01  0.99  0.00  0.00  0.00  0.00
  134-135                 1.00   0.00  0.00  0.00  0.00  0.00  0.00  1.00  0.00  0.00
  135-136                 1.00   0.00  0.00  0.00  1.00  0.00  0.00  0.00  0.98  0.00
  136-137                 1.00   0.00  0.00  0.00  0.00  0.00  0.00  1.00  0.00  0.00
  137-138                 1.00   0.00  0.00  0.00  1.00  0.00  0.00  0.00  1.00  0.00
  138-139                 1.00   0.00  0.00  0.00  1.00  0.00  0.00  0.00  0.00  0.00
  139-92                  1.00   0.00  0.00  0.00  1.00  0.00  0.00  0.00  1.00  0.00
  
  
  *************************
  Conduit Surcharge Summary
  *************************
  
  No conduits were surcharged.
  
  
  ***************
  Pumping Summary
  ***************
  
  ---------------------------------------------------------------------------------------------------------
                                                  Min       Avg       Max     Total     Power    % Time Off
                        Percent   Number of      Flow      Flow      Flow    Volume     Usage    Pump Curve
  Pump                 Utilized   Start-Ups       LPS       LPS       LPS  10^6 ltr     Kw-hr    Low   High
  ---------------------------------------------------------------------------------------------------------
  pompa667                 2.46          24      0.00     40.00     40.00     0.085      0.18    0.0  100.0
  
  
  ***************************
  Link Pollutant Load Summary
  ***************************
  
  ----------------------------------
                               Zinco
  Link                            kg
  ----------------------------------
  8-9                          0.000
  9-10                         0.000
  10-11                        0.000
  11-A                         0.000
  12-A                         0.000
  A-13                         0.000
  13-14                        0.000
  14-15                        0.000
  15-16                        0.000
  16-17                        0.000
  17-18                        0.000
  18-19                        0.000
  19-20                        0.000
  20-21                        0.000
  21-22                        0.000
  22-23                        0.000
  23-24                        0.000
  24-25                        0.000
  26-27                        0.000
  27-28                        0.000
  28-29                        0.000
  38-39                        0.000
  39-29                        0.000
  29-30                        0.000
  30-31                        0.000
  31-32                        0.000
  40-32                        0.000
  32-33                        0.000
  33-34                        0.000
  34-35                        0.000
  41-42                        0.000
  42-43                        0.000
  43-44                        0.000
  44-35                        0.000
  35-36                        0.000
  36-37                        0.000
  37-25                        0.000
  25-46                        0.000
  46-47                        0.000
  47-48                        0.000
  48-49                        0.000
  49-50                        0.000
  50-51                        0.000
  108-109                      0.000
  109-110                      0.000
  110-111                      0.000
  111-112                      0.000
  112-51                       0.000
  51-52                        0.000
  52-53                        0.000
  53-54                        0.000
  54-55                        0.000
  55-56                        0.000
  56-57                        0.000
  57-58                        0.000
  58-59                        0.000
  59-60                        0.000
  113-114                      0.000
  114-115                      0.000
  115-116                      0.000
  116-117                      0.000
  117-118                      0.000
  118-119                      0.000
  119-120                      0.000
  120-121                      0.000
  121-122                      0.000
  122-60                       0.000
  60-61                        0.000
  61-62                        0.000
  62-ae                        0.000
  693-692                      0.000
  692-691                      0.000
  691-690                      0.000
  695-694                      0.000
  694-690                      0.000
  690-689                      0.000
  689-688                      0.000
  688-687                      0.000
  696-687                      0.000
  687-686                      0.000
  686-685                      0.000
  697-685                      0.000
  685-684                      0.000
  684-683                      0.000
  683-682                      0.000
  682-681                      0.000
  681-680                      0.000
  680-679                      0.000
  679-678                      0.000
  678-677                      0.000
  677-676                      0.000
  676-675                      0.000
  675-674                      0.000
  701-700                      0.000
  700-699                      0.000
  699-674                      0.000
  674-673                      0.527
  673-672                      0.527
  672-671                      0.527
  671-670                      0.527
  670-669                      0.528
  669-668                      0.528
  668-665                      0.530
  665-an                       0.000
  665-667                      0.530
  62-B                         0.000
  B-63                         0.000
  63-64                        0.000
  64-65                        0.000
  65-66                        0.000
  66-67                        0.000
  67-68                        0.000
  68-69                        0.000
  69-70                        0.000
  70-71                        0.000
  71-72                        0.000
  72-73                        0.000
  73-74                        0.000
  74-75                        0.000
  75-76                        0.040
  76-77                        0.570
  77-78                        0.574
  78-79                        0.580
  79-80                        0.580
  80-81                        0.581
  81-82                        0.583
  82-83                        0.586
  83-84                        0.587
  84-85                        0.588
  85-86                        0.589
  86-87                        0.589
  87-88                        0.589
  88-89                        0.589
  89-90                        0.588
  90-91                        0.588
  91-92                        0.589
  92-93                        0.589
  93-94                        0.590
  94-95                        0.590
  95-96                        0.591
  96-97                        0.591
  97-98                        0.592
  98-99                        0.592
  99-100                       0.592
  100-101                      0.592
  101-102                      0.592
  102-103                      0.593
  145-103                      0.007
  103-104                      0.593
  104-105                      0.593
  105-106                      0.594
  106-107a                     0.592
  C-af                         0.000
  140-C                        0.000
  140-141                      0.000
  141-142                      0.000
  142-143                      0.000
  143-98                       0.000
  123-124                      0.000
  124-125                      0.000
  125-126                      0.000
  126-127                      0.000
  127-128                      0.000
  128-129                      0.000
  129-130                      0.000
  130-131                      0.000
  131-132                      0.000
  132-133                      0.000
  133-134                      0.000
  134-135                      0.000
  135-136                      0.000
  136-137                      0.000
  137-138                      0.000
  138-139                      0.000
  139-92                       0.000
  pompa667                     0.529
  

  Analysis begun on:  Fri Mar  6 14:54:55 2026
  Analysis ended on:  Fri Mar  6 14:54:59 2026
  Total elapsed time: 00:00:04