
  EPA STORM WATER MANAGEMENT MODEL - VERSION 5.2 (Build 5.2.4)
  ------------------------------------------------------------

  Z.IND+FRAZIONI SDF - pozz. 674 
  WARNING 04: minimum elevation drop used for Conduit 94-95
  WARNING 04: minimum elevation drop used for Conduit 104-105
  WARNING 04: minimum elevation drop used for Conduit 140-C
  
  ****************
  Analysis Options
  ****************
  Flow Units ............... LPS
  Process Models:
    Rainfall/Runoff ........ NO
    RDII ................... NO
    Snowmelt ............... NO
    Groundwater ............ NO
    Flow Routing ........... YES
    Ponding Allowed ........ NO
    Water Quality .......... YES
  Flow Routing Method ...... DYNWAVE
  Surcharge Method ......... EXTRAN
  Starting Date ............ 02/07/2014 00:00:00
  Ending Date .............. 02/08/2014 00:00:00
  Antecedent Dry Days ...... 0.0
  Report Time Step ......... 00:10:00
  Routing Time Step ........ 1.00 sec
  Variable Time Step ....... NO
  Maximum Trials ........... 8
  Number of Threads ........ 1
  Head Tolerance ........... 0.001524 m
  
  
  **************************        Volume        Volume
  Flow Routing Continuity        hectare-m      10^6 ltr
  **************************     ---------     ---------
  Dry Weather Inflow .......         0.022         0.220
  Wet Weather Inflow .......         0.000         0.000
  Groundwater Inflow .......         0.000         0.000
  RDII Inflow ..............         0.000         0.000
  External Inflow ..........         0.001         0.005
  External Outflow .........         0.020         0.204
  Flooding Loss ............         0.000         0.000
  Evaporation Loss .........         0.000         0.000
  Exfiltration Loss ........         0.000         0.000
  Initial Stored Volume ....         0.000         0.000
  Final Stored Volume ......         0.002         0.022
  Continuity Error (%) .....        -0.261
  
  
  **************************         Zinco
  Quality Routing Continuity            kg
  **************************    ----------
  Dry Weather Inflow .......         0.000
  Wet Weather Inflow .......         0.000
  Groundwater Inflow .......         0.000
  RDII Inflow ..............         0.000
  External Inflow ..........         0.526
  External Outflow .........         0.531
  Flooding Loss ............         0.000
  Exfiltration Loss ........         0.000
  Mass Reacted .............         0.000
  Initial Stored Mass ......         0.000
  Final Stored Mass ........         0.000
  Continuity Error (%) .....        -0.959
  
  
  *************************
  Highest Continuity Errors
  *************************
  Node 37 (4.77%)
  Node 690 (4.18%)
  Node 112 (2.48%)
  Node 22 (2.08%)
  Node 685 (1.47%)
  
  
  ********************************
  Highest Flow Instability Indexes
  ********************************
  All links are stable.
  
  
  *********************************
  Most Frequent Nonconverging Nodes
  *********************************
  Convergence obtained at all time steps.
  
  
  *************************
  Routing Time Step Summary
  *************************
  Minimum Time Step           :     1.00 sec
  Average Time Step           :     1.00 sec
  Maximum Time Step           :     1.00 sec
  % of Time in Steady State   :     0.00
  Average Iterations per Step :     2.00
  % of Steps Not Converging   :     0.00
  
  
  ******************
  Node Depth Summary
  ******************
  
  ---------------------------------------------------------------------------------
                                 Average  Maximum  Maximum  Time of Max    Reported
                                   Depth    Depth      HGL   Occurrence   Max Depth
  Node                 Type       Meters   Meters   Meters  days hr:min      Meters
  ---------------------------------------------------------------------------------
  8                    JUNCTION     0.00     0.00    63.30     0  00:00        0.00
  9                    JUNCTION     0.00     0.00    63.08     0  00:00        0.00
  10                   JUNCTION     0.00     0.00    62.83     0  00:00        0.00
  11                   JUNCTION     0.01     0.01    62.83     0  00:02        0.01
  12                   JUNCTION     0.00     0.00    62.24     0  00:17        0.00
  13                   JUNCTION     0.01     0.01    62.12     0  00:31        0.01
  14                   JUNCTION     0.01     0.01    61.79     0  00:37        0.01
  15                   JUNCTION     0.01     0.01    61.54     0  00:38        0.01
  16                   JUNCTION     0.01     0.01    61.28     0  00:47        0.01
  17                   JUNCTION     0.01     0.01    61.01     0  00:45        0.01
  26                   JUNCTION     0.00     0.00    60.62     0  00:00        0.00
  27                   JUNCTION     0.00     0.00    60.25     0  00:00        0.00
  28                   JUNCTION     0.00     0.00    60.09     0  00:00        0.00
  29                   JUNCTION     0.00     0.00    60.03     0  00:06        0.00
  38                   JUNCTION     0.00     0.00    60.15     0  00:00        0.00
  39                   JUNCTION     0.00     0.00    60.08     0  00:00        0.00
  30                   JUNCTION     0.01     0.01    59.90     0  00:27        0.01
  31                   JUNCTION     0.01     0.01    59.83     0  00:53        0.01
  40                   JUNCTION     0.00     0.00    59.61     0  00:00        0.00
  32                   JUNCTION     0.00     0.00    59.47     0  00:56        0.00
  33                   JUNCTION     0.01     0.01    59.23     0  01:15        0.01
  34                   JUNCTION     0.01     0.01    59.20     0  01:38        0.01
  35                   JUNCTION     0.00     0.00    58.94     0  02:27        0.00
  44                   JUNCTION     0.00     0.00    59.08     0  00:00        0.00
  43                   JUNCTION     0.00     0.00    59.33     0  00:00        0.00
  42                   JUNCTION     0.00     0.00    59.64     0  00:00        0.00
  41                   JUNCTION     0.00     0.00    59.78     0  00:00        0.00
  18                   JUNCTION     0.01     0.01    60.73     0  00:56        0.01
  19                   JUNCTION     0.01     0.01    60.37     0  01:10        0.01
  20                   JUNCTION     0.01     0.01    59.90     0  01:10        0.01
  21                   JUNCTION     0.01     0.01    59.80     0  01:16        0.01
  22                   JUNCTION     0.05     0.05    59.76     0  22:38        0.05
  23                   JUNCTION     0.01     0.01    59.76     0  22:39        0.01
  24                   JUNCTION     0.01     0.01    59.43     0  22:43        0.01
  36                   JUNCTION     0.00     0.00    58.84     0  01:47        0.00
  37                   JUNCTION     0.10     0.10    58.59     0  02:07        0.10
  25                   JUNCTION     0.02     0.02    58.52     0  22:46        0.02
  46                   JUNCTION     0.01     0.01    58.34     0  02:18        0.01
  47                   JUNCTION     0.01     0.01    58.16     0  02:24        0.01
  48                   JUNCTION     0.01     0.01    57.94     0  02:32        0.01
  49                   JUNCTION     0.01     0.01    57.74     0  02:35        0.01
  50                   JUNCTION     0.01     0.01    57.63     0  02:41        0.01
  51                   JUNCTION     0.01     0.01    57.10     0  23:09        0.01
  112                  JUNCTION     0.01     0.01    57.23     0  15:04        0.01
  111                  JUNCTION     0.00     0.00    57.47     0  00:43        0.00
  110                  JUNCTION     0.00     0.00    57.64     0  00:35        0.00
  109                  JUNCTION     0.00     0.00    57.81     0  00:21        0.00
  108                  JUNCTION     0.00     0.00    57.96     0  00:09        0.00
  52                   JUNCTION     0.01     0.01    56.93     0  02:44        0.01
  53                   JUNCTION     0.01     0.01    56.79     0  02:53        0.01
  54                   JUNCTION     0.01     0.01    56.56     0  23:19        0.01
  55                   JUNCTION     0.01     0.01    56.41     0  23:24        0.01
  56                   JUNCTION     0.01     0.01    55.96     0  03:03        0.01
  57                   JUNCTION     0.01     0.01    55.89     0  23:31        0.01
  58                   JUNCTION     0.01     0.01    55.77     0  23:35        0.01
  59                   JUNCTION     0.01     0.01    55.68     0  23:38        0.01
  60                   JUNCTION     0.01     0.01    55.67     0  23:42        0.01
  122                  JUNCTION     0.01     0.01    55.97     0  15:32        0.01
  121                  JUNCTION     0.00     0.00    56.04     0  02:32        0.00
  120                  JUNCTION     0.01     0.01    56.07     0  02:03        0.01
  119                  JUNCTION     0.00     0.00    56.18     0  03:22        0.00
  118                  JUNCTION     0.00     0.00    56.35     0  00:55        0.00
  117                  JUNCTION     0.01     0.01    56.56     0  00:45        0.01
  116                  JUNCTION     0.00     0.01    56.69     0  00:16        0.01
  115                  JUNCTION     0.00     0.00    56.76     0  00:07        0.00
  113                  JUNCTION     0.00     0.00    57.91     0  00:00        0.00
  114                  JUNCTION     0.00     0.00    56.91     0  00:00        0.00
  61                   JUNCTION     0.02     0.02    55.62     0  02:56        0.02
  62                   JUNCTION     0.01     0.01    55.41     0  02:58        0.01
  A                    JUNCTION     0.01     0.01    62.24     0  00:17        0.01
  665                  JUNCTION     0.01     0.01    52.85     0  06:31        0.01
  667                  JUNCTION     0.97     1.16    52.33     0  01:26        1.03
  668                  JUNCTION     0.11     0.12    52.89     0  06:31        0.12
  669                  JUNCTION     0.03     0.03    52.92     0  06:23        0.03
  670                  JUNCTION     0.03     0.03    53.03     0  06:15        0.03
  671                  JUNCTION     0.02     0.03    53.26     0  06:17        0.03
  672                  JUNCTION     0.03     0.04    53.37     0  06:11        0.04
  673                  JUNCTION     0.03     0.03    53.50     0  09:00        0.03
  674                  JUNCTION     0.03     0.03    53.64     0  06:02        0.03
  701                  JUNCTION     0.00     0.00    53.94     0  00:00        0.00
  700                  JUNCTION     0.00     0.00    53.89     0  00:00        0.00
  699                  JUNCTION     0.01     0.01    53.77     0  00:59        0.01
  675                  JUNCTION     0.03     0.03    53.72     0  09:04        0.03
  676                  JUNCTION     0.03     0.03    53.81     0  06:06        0.03
  677                  JUNCTION     0.03     0.03    53.91     0  22:59        0.03
  678                  JUNCTION     0.04     0.04    53.96     0  21:08        0.04
  679                  JUNCTION     0.03     0.03    54.01     0  18:19        0.03
  680                  JUNCTION     0.03     0.03    54.11     0  21:28        0.03
  681                  JUNCTION     0.03     0.03    54.15     0  21:28        0.03
  682                  JUNCTION     0.02     0.02    54.33     0  23:35        0.02
  683                  JUNCTION     0.03     0.03    54.44     0  21:27        0.03
  684                  JUNCTION     0.01     0.01    55.92     0  22:22        0.01
  685                  JUNCTION     0.03     0.03    55.98     0  23:09        0.03
  697                  JUNCTION     0.00     0.00    56.50     0  00:00        0.00
  686                  JUNCTION     0.01     0.02    56.10     0  00:12        0.01
  687                  JUNCTION     0.02     0.02    56.20     0  00:05        0.02
  696                  JUNCTION     0.00     0.00    56.47     0  00:00        0.00
  688                  JUNCTION     0.01     0.01    56.36     0  17:28        0.01
  689                  JUNCTION     0.01     0.01    56.44     0  20:53        0.01
  690                  JUNCTION     0.02     0.02    56.58     0  18:37        0.02
  694                  JUNCTION     0.00     0.00    56.75     0  00:00        0.00
  695                  JUNCTION     0.00     0.00    56.78     0  00:00        0.00
  691                  JUNCTION     0.01     0.01    56.72     0  02:59        0.01
  692                  JUNCTION     0.00     0.00    56.84     0  00:00        0.00
  693                  JUNCTION     0.00     0.00    57.01     0  00:00        0.00
  63                   JUNCTION     0.01     0.01    54.55     0  23:49        0.01
  64                   JUNCTION     0.01     0.01    54.29     0  23:51        0.01
  65                   JUNCTION     0.01     0.01    54.10     0  23:54        0.01
  66                   JUNCTION     0.01     0.01    53.88     0  23:58        0.01
  67                   JUNCTION     0.01     0.02    53.64     1  00:00        0.02
  68                   JUNCTION     0.01     0.01    53.44     1  00:00        0.01
  69                   JUNCTION     0.01     0.02    53.10     1  00:00        0.02
  70                   JUNCTION     0.01     0.01    52.84     1  00:00        0.01
  71                   JUNCTION     0.02     0.02    52.21     1  00:00        0.02
  72                   JUNCTION     0.01     0.01    52.17     0  15:35        0.01
  73                   JUNCTION     0.01     0.01    51.93     0  16:53        0.01
  74                   JUNCTION     0.01     0.01    51.69     0  16:53        0.01
  75                   JUNCTION     0.01     0.02    51.39     0  18:58        0.02
  76                   JUNCTION     0.03     0.03    51.32     0  06:34        0.03
  77                   JUNCTION     0.03     0.04    51.20     0  06:39        0.04
  78                   JUNCTION     0.03     0.04    51.10     0  09:02        0.04
  79                   JUNCTION     0.04     0.05    51.03     0  09:02        0.05
  80                   JUNCTION     0.03     0.04    50.99     0  09:03        0.04
  81                   JUNCTION     0.03     0.03    50.88     0  09:04        0.03
  82                   JUNCTION     0.03     0.04    50.74     0  09:05        0.04
  83                   JUNCTION     0.03     0.04    50.67     0  06:49        0.04
  84                   JUNCTION     0.03     0.04    50.56     0  09:07        0.04
  85                   JUNCTION     0.03     0.04    50.45     0  06:52        0.04
  86                   JUNCTION     0.03     0.04    50.37     0  09:09        0.04
  87                   JUNCTION     0.03     0.04    50.14     0  09:10        0.04
  88                   JUNCTION     0.03     0.03    50.06     0  09:11        0.03
  89                   JUNCTION     0.03     0.04    49.91     0  09:13        0.04
  90                   JUNCTION     0.04     0.05    49.80     0  09:14        0.05
  91                   JUNCTION     0.04     0.05    49.77     0  09:15        0.05
  92                   JUNCTION     0.03     0.04    49.73     0  09:17        0.04
  93                   JUNCTION     0.04     0.04    49.54     0  09:17        0.04
  94                   JUNCTION     0.06     0.07    49.46     0  09:19        0.07
  95                   JUNCTION     0.03     0.03    49.42     0  09:19        0.03
  96                   JUNCTION     0.04     0.05    49.25     0  09:20        0.05
  97                   JUNCTION     0.07     0.07    49.20     0  09:21        0.07
  98                   JUNCTION     0.03     0.03    49.18     0  09:22        0.03
  99                   JUNCTION     0.03     0.04    48.89     0  09:23        0.04
  100                  JUNCTION     0.04     0.05    48.68     0  09:24        0.05
  101                  JUNCTION     0.04     0.04    48.56     0  09:25        0.04
  102                  JUNCTION     0.03     0.03    48.44     0  09:26        0.03
  103                  JUNCTION     0.06     0.07    47.72     0  09:28        0.07
  145                  JUNCTION     0.02     0.02    47.72     0  09:28        0.02
  104                  JUNCTION     0.05     0.06    47.72     0  09:28        0.06
  105                  JUNCTION     0.02     0.03    47.69     0  09:29        0.03
  106                  JUNCTION     0.03     0.04    47.55     0  09:32        0.04
  143                  JUNCTION     0.01     0.01    50.39     0  00:31        0.01
  142                  JUNCTION     0.01     0.01    50.47     0  00:19        0.01
  141                  JUNCTION     0.01     0.01    50.60     0  00:10        0.01
  140                  JUNCTION     0.00     0.00    50.75     0  00:00        0.00
  139                  JUNCTION     0.02     0.02    50.06     0  07:59        0.02
  138                  JUNCTION     0.03     0.03    50.19     0  22:24        0.03
  137                  JUNCTION     0.02     0.02    50.34     0  07:38        0.02
  136                  JUNCTION     0.03     0.03    50.57     0  03:40        0.03
  135                  JUNCTION     0.02     0.02    50.74     0  06:55        0.02
  134                  JUNCTION     0.01     0.01    51.76     0  03:39        0.01
  133                  JUNCTION     0.02     0.02    52.03     0  04:14        0.02
  132                  JUNCTION     0.03     0.03    52.10     0  06:55        0.03
  131                  JUNCTION     0.02     0.02    52.21     0  04:20        0.02
  130                  JUNCTION     0.02     0.02    52.45     0  04:30        0.02
  129                  JUNCTION     0.02     0.02    52.69     0  03:23        0.02
  128                  JUNCTION     0.01     0.02    52.89     0  00:26        0.02
  127                  JUNCTION     0.02     0.02    52.99     0  00:15        0.02
  126                  JUNCTION     0.01     0.01    53.25     0  00:06        0.01
  125                  JUNCTION     0.00     0.00    54.15     0  00:00        0.00
  124                  JUNCTION     0.00     0.00    54.96     0  00:00        0.00
  123                  JUNCTION     0.00     0.00    55.23     0  00:00        0.00
  C                    JUNCTION     0.00     0.00    50.41     0  00:00        0.00
  B                    JUNCTION     0.01     0.01    55.24     0  03:00        0.01
  ae                   OUTFALL      0.00     0.00    55.23     0  00:00        0.00
  an                   OUTFALL      0.00     0.00    52.69     0  00:00        0.00
  af                   OUTFALL      0.00     0.00    50.32     0  00:00        0.00
  107a                 OUTFALL      0.01     0.01    46.97     0  09:32        0.01
  
  
  *******************
  Node Inflow Summary
  *******************
  
  -------------------------------------------------------------------------------------------------
                                  Maximum  Maximum                  Lateral       Total        Flow
                                  Lateral    Total  Time of Max      Inflow      Inflow     Balance
                                   Inflow   Inflow   Occurrence      Volume      Volume       Error
  Node                 Type           LPS      LPS  days hr:min    10^6 ltr    10^6 ltr     Percent
  -------------------------------------------------------------------------------------------------
  8                    JUNCTION      0.00     0.00     0  00:00           0           0       0.000 ltr
  9                    JUNCTION      0.00     0.00     0  00:00           0           0       0.000 ltr
  10                   JUNCTION      0.00     0.00     0  00:00           0           0       0.000 ltr
  11                   JUNCTION      0.11     0.11     0  00:00      0.0095      0.0095       0.063
  12                   JUNCTION      0.00     0.03     0  21:36           0    4.43e-06       2.279 ltr
  13                   JUNCTION      0.00     0.12     0  00:24           0     0.00946       0.364
  14                   JUNCTION      0.02     0.13     0  00:31     0.00173      0.0112       0.298
  15                   JUNCTION      0.00     0.13     0  00:37           0      0.0111       0.352
  16                   JUNCTION      0.00     0.13     0  00:42           0      0.0111       0.311
  17                   JUNCTION      0.00     0.13     0  00:47           0       0.011       0.277
  26                   JUNCTION      0.00     0.00     0  00:00           0           0       0.000 ltr
  27                   JUNCTION      0.00     0.00     0  00:00           0           0       0.000 ltr
  28                   JUNCTION      0.00     0.00     0  00:00           0           0       0.000 ltr
  29                   JUNCTION      0.03     0.03     0  00:00     0.00259     0.00259       0.195
  38                   JUNCTION      0.00     0.00     0  00:00           0           0       0.000 ltr
  39                   JUNCTION      0.00     0.00     0  00:00           0           0       0.000 ltr
  30                   JUNCTION      0.00     0.03     0  00:07           0     0.00259       0.636
  31                   JUNCTION      0.00     0.03     0  00:38           0     0.00257       0.658
  40                   JUNCTION      0.00     0.00     0  00:00           0           0       0.000 ltr
  32                   JUNCTION      0.00     0.03     0  00:53           0     0.00255       0.213
  33                   JUNCTION      0.00     0.03     0  00:56           0     0.00255       1.254
  34                   JUNCTION      0.00     0.03     0  01:25           0     0.00252       0.647
  35                   JUNCTION      0.00     0.03     0  01:38           0      0.0025       0.294
  44                   JUNCTION      0.00     0.00     0  00:00           0           0       0.000 ltr
  43                   JUNCTION      0.00     0.00     0  00:00           0           0       0.000 ltr
  42                   JUNCTION      0.00     0.00     0  00:00           0           0       0.000 ltr
  41                   JUNCTION      0.00     0.00     0  00:00           0           0       0.000 ltr
  18                   JUNCTION      0.00     0.13     0  00:50           0       0.011       0.271
  19                   JUNCTION      0.00     0.13     0  00:56           0       0.011       0.497
  20                   JUNCTION      0.00     0.13     0  01:10           0      0.0109       0.256
  21                   JUNCTION      0.00     0.13     0  01:13           0      0.0109       0.173
  22                   JUNCTION      0.00     0.13     0  01:03           0      0.0109       2.125
  23                   JUNCTION      0.02     0.15     0  22:34     0.00173      0.0124       0.323
  24                   JUNCTION      0.00     0.15     0  22:39           0      0.0123       0.755
  36                   JUNCTION      0.00     0.03     0  01:44           0     0.00249       0.237
  37                   JUNCTION      0.00     0.03     0  02:05           0     0.00249       5.007
  25                   JUNCTION      0.00     0.18     0  02:07           0      0.0146       0.264
  46                   JUNCTION      0.00     0.18     0  22:46           0      0.0146       0.325
  47                   JUNCTION      0.00     0.18     0  02:22           0      0.0145       0.261
  48                   JUNCTION      0.00     0.18     0  02:28           0      0.0145       0.266
  49                   JUNCTION      0.00     0.18     0  02:32           0      0.0145       0.379
  50                   JUNCTION      0.00     0.18     0  02:38           0      0.0144       0.221
  51                   JUNCTION      0.00     0.20     0  23:07           0       0.016       0.144
  112                  JUNCTION      0.00     0.02     0  00:43           0      0.0017       2.538
  111                  JUNCTION      0.00     0.02     0  00:38           0     0.00171       0.318
  110                  JUNCTION      0.00     0.02     0  00:28           0     0.00171       0.430
  109                  JUNCTION      0.00     0.02     0  00:15           0     0.00172       0.532
  108                  JUNCTION      0.02     0.02     0  00:00     0.00173     0.00173       0.248
  52                   JUNCTION      0.00     0.20     0  23:09           0       0.016       0.240
  53                   JUNCTION      0.00     0.20     0  02:48           0       0.016       0.231
  54                   JUNCTION      0.03     0.23     0  02:53     0.00259      0.0185       0.248
  55                   JUNCTION      0.00     0.23     0  23:19           0      0.0185       0.358
  56                   JUNCTION      0.00     0.23     0  23:24           0      0.0184       0.202
  57                   JUNCTION      0.00     0.23     0  23:27           0      0.0184       0.252
  58                   JUNCTION      0.00     0.23     0  23:31           0      0.0183       0.286
  59                   JUNCTION      0.00     0.23     0  23:35           0      0.0183       0.190
  60                   JUNCTION      0.00     0.26     0  23:38           0      0.0207       0.307
  122                  JUNCTION      0.00     0.03     0  02:32           0     0.00249       1.172
  121                  JUNCTION      0.00     0.03     0  02:18           0      0.0025       0.515
  120                  JUNCTION      0.00     0.03     0  03:21           0     0.00254       1.408
  119                  JUNCTION      0.00     0.03     0  00:55           0     0.00255       0.363
  118                  JUNCTION      0.00     0.03     0  00:47           0     0.00255       0.190
  117                  JUNCTION      0.00     0.04     0  00:22           0     0.00258       1.126
  116                  JUNCTION      0.00     0.04     0  00:10           0     0.00259       0.283
  115                  JUNCTION      0.03     0.03     0  00:00     0.00259     0.00259       0.233
  113                  JUNCTION      0.00     0.00     0  00:00           0           0       0.000 ltr
  114                  JUNCTION      0.00     0.00     0  00:00           0           0       0.000 ltr
  61                   JUNCTION      0.00     0.26     0  23:42           0      0.0206       0.956
  62                   JUNCTION      0.00     0.29     0  02:58           0      0.0204       0.067
  A                    JUNCTION      0.00     0.12     0  21:37           0      0.0095       0.379
  665                  JUNCTION      0.00     1.58     0  06:31           0      0.0944       0.013
  667                  JUNCTION      0.00     1.58     0  06:31           0      0.0944       1.288
  668                  JUNCTION      0.00     1.59     0  06:23           0      0.0956       1.263
  669                  JUNCTION      0.00     1.59     0  06:19           0      0.0958       0.232
  670                  JUNCTION      0.00     1.58     0  06:17           0       0.096       0.223
  671                  JUNCTION      0.00     1.58     0  06:14           0      0.0962       0.181
  672                  JUNCTION      0.00     1.58     0  09:00           0      0.0964       0.241
  673                  JUNCTION      0.00     1.61     0  06:03           0      0.0966       0.199
  674                  JUNCTION      0.50     1.62     0  06:01     0.00543      0.0967       0.108
  701                  JUNCTION      0.00     0.00     0  00:00           0           0       0.000 ltr
  700                  JUNCTION      0.00     0.00     0  00:00           0           0       0.000 ltr
  699                  JUNCTION      0.17     0.17     0  00:00      0.0147      0.0147       0.163
  675                  JUNCTION      0.00     0.92     0  09:03           0      0.0767       0.115
  676                  JUNCTION      0.00     0.91     0  19:07           0      0.0769       0.206
  677                  JUNCTION      0.00     0.91     0  21:35           0       0.077       0.146
  678                  JUNCTION      0.00     0.91     0  18:18           0      0.0771       0.220
  679                  JUNCTION      0.00     0.91     0  17:09           0      0.0773       0.160
  680                  JUNCTION      0.16     0.91     0  19:05      0.0138      0.0774       0.127
  681                  JUNCTION      0.00     0.75     0  18:20           0      0.0637       0.284
  682                  JUNCTION      0.00     0.75     0  22:41           0      0.0639       0.221
  683                  JUNCTION      0.20     0.75     0  21:50      0.0173      0.0639       0.127
  684                  JUNCTION      0.20     0.55     0  22:59      0.0173      0.0467       0.035
  685                  JUNCTION      0.00     0.35     0  17:55           0      0.0298       1.488
  697                  JUNCTION      0.00     0.00     0  00:00           0           0       0.000 ltr
  686                  JUNCTION      0.00     0.35     0  21:15           0      0.0299       0.273
  687                  JUNCTION      0.25     0.35     0  20:58      0.0216      0.0299       0.129
  696                  JUNCTION      0.00     0.00     0  00:00           0           0       0.000 ltr
  688                  JUNCTION      0.00     0.10     0  20:53           0     0.00841       0.720
  689                  JUNCTION      0.05     0.10     0  18:38     0.00432     0.00843       0.221
  690                  JUNCTION      0.00     0.05     0  03:00           0     0.00429       4.364
  694                  JUNCTION      0.00     0.00     0  00:00           0           0       0.000 ltr
  695                  JUNCTION      0.00     0.00     0  00:00           0           0       0.000 ltr
  691                  JUNCTION      0.05     0.05     0  00:00     0.00432     0.00432       0.812
  692                  JUNCTION      0.00     0.00     0  00:00           0           0       0.000 ltr
  693                  JUNCTION      0.00     0.00     0  00:00           0           0       0.000 ltr
  63                   JUNCTION      0.00     0.27     0  03:00           0      0.0204       0.369
  64                   JUNCTION      0.00     0.26     0  23:49           0      0.0203       0.313
  65                   JUNCTION      0.00     0.26     0  23:52           0      0.0203       0.295
  66                   JUNCTION      0.00     0.26     0  23:55           0      0.0202       0.288
  67                   JUNCTION      0.00     0.26     0  23:58           0      0.0201       0.347
  68                   JUNCTION      0.00     0.26     1  00:00           0      0.0201       0.329
  69                   JUNCTION      0.00     0.26     1  00:00           0        0.02       0.413
  70                   JUNCTION      0.00     0.26     1  00:00           0      0.0199       0.421
  71                   JUNCTION      0.02     0.28     1  00:00     0.00173      0.0216       0.721
  72                   JUNCTION      0.00     0.28     1  00:00           0      0.0214       0.256
  73                   JUNCTION      0.00     0.28     0  15:20           0      0.0214       0.304
  74                   JUNCTION      0.00     0.28     0  16:54           0      0.0213       0.277
  75                   JUNCTION      0.00     0.28     0  16:01           0      0.0212       0.370
  76                   JUNCTION      0.00    40.02     0  01:26           0       0.114       0.160
  77                   JUNCTION      0.00     1.86     0  06:34           0       0.114       0.225
  78                   JUNCTION      0.00     1.86     0  06:39           0       0.114       0.265
  79                   JUNCTION      0.00     1.86     0  09:02           0       0.114       0.407
  80                   JUNCTION      0.00     1.86     0  09:02           0       0.113       0.259
  81                   JUNCTION      0.00     1.86     0  09:03           0       0.113       0.199
  82                   JUNCTION      0.00     1.86     0  09:04           0       0.113       0.267
  83                   JUNCTION      0.00     1.86     0  09:05           0       0.112       0.244
  84                   JUNCTION      0.00     1.86     0  09:06           0       0.112       0.246
  85                   JUNCTION      0.00     1.86     0  09:07           0       0.112       0.244
  86                   JUNCTION      0.00     1.86     0  06:58           0       0.111       0.357
  87                   JUNCTION      0.00     1.86     0  09:09           0       0.111       0.478
  88                   JUNCTION      0.00     1.86     0  09:11           0       0.111       0.186
  89                   JUNCTION      0.00     1.86     0  09:11           0        0.11       0.225
  90                   JUNCTION      0.00     1.86     0  09:13           0        0.11       0.368
  91                   JUNCTION      0.00     1.86     0  09:14           0        0.11       0.455
  92                   JUNCTION      0.09     2.96     0  09:16     0.00778       0.202       0.167
  93                   JUNCTION      0.00     2.96     0  09:17           0       0.202       0.156
  94                   JUNCTION      0.00     2.96     0  09:17           0       0.202       0.272
  95                   JUNCTION      0.00     2.96     0  09:19           0       0.201       0.095
  96                   JUNCTION      0.00     2.96     0  09:19           0       0.201       0.178
  97                   JUNCTION      0.00     2.96     0  09:20           0       0.201       0.246
  98                   JUNCTION      0.00     3.05     0  09:21           0       0.208       0.092
  99                   JUNCTION      0.00     3.05     0  09:22           0       0.208       0.130
  100                  JUNCTION      0.00     3.05     0  09:23           0       0.207       0.197
  101                  JUNCTION      0.00     3.05     0  09:24           0       0.207       0.107
  102                  JUNCTION      0.00     3.05     0  09:25           0       0.207       0.160
  103                  JUNCTION      0.00     3.05     0  09:26           0       0.206       0.320
  145                  JUNCTION      0.00     0.04     0  02:52           0    0.000108     166.150
  104                  JUNCTION      0.00     3.05     0  09:27           0       0.206       0.286
  105                  JUNCTION      0.00     3.05     0  09:29           0       0.205       0.107
  106                  JUNCTION      0.00     3.05     0  09:29           0       0.205       0.499
  143                  JUNCTION      0.00     0.10     0  00:25           0     0.00771       0.379
  142                  JUNCTION      0.00     0.11     0  00:12           0     0.00775       0.486
  141                  JUNCTION      0.09     0.09     0  00:00     0.00778     0.00778       0.310
  140                  JUNCTION      0.00     0.00     0  00:00           0           0       0.000 ltr
  139                  JUNCTION      0.00     1.01     0  13:04           0      0.0855       0.130
  138                  JUNCTION      0.09     1.01     0  03:44     0.00778      0.0857       0.207
  137                  JUNCTION      0.00     0.92     0  04:05           0       0.078       0.100
  136                  JUNCTION      0.00     0.92     0  03:33           0      0.0782       0.225
  135                  JUNCTION      0.00     0.92     0  07:37           0      0.0782       0.065
  134                  JUNCTION      0.00     0.92     0  07:37           0      0.0783       0.073
  133                  JUNCTION      0.00     0.92     0  05:52           0      0.0785       0.226
  132                  JUNCTION      0.28     0.92     0  03:25      0.0242      0.0787       0.247
  131                  JUNCTION      0.00     0.64     0  04:06           0      0.0545       0.135
  130                  JUNCTION      0.00     0.64     0  03:19           0      0.0548       0.407
  129                  JUNCTION      0.28     0.65     0  00:26      0.0242      0.0551       0.544
  128                  JUNCTION      0.05     0.38     0  00:20     0.00432       0.031       0.325
  127                  JUNCTION      0.00     0.34     0  00:07           0      0.0267       0.402
  126                  JUNCTION      0.31     0.31     0  00:00      0.0268      0.0268       0.133
  125                  JUNCTION      0.00     0.00     0  00:00           0           0       0.000 ltr
  124                  JUNCTION      0.00     0.00     0  00:00           0           0       0.000 ltr
  123                  JUNCTION      0.00     0.00     0  00:00           0           0       0.000 ltr
  C                    JUNCTION      0.00     0.00     0  00:00           0           0       0.000 ltr
  B                    JUNCTION      0.00     0.29     0  02:58           0      0.0204       0.211
  ae                   OUTFALL       0.00     0.00     0  00:00           0           0       0.000 ltr
  an                   OUTFALL       0.00     0.00     0  00:00           0           0       0.000 ltr
  af                   OUTFALL       0.00     0.00     0  00:00           0           0       0.000 ltr
  107a                 OUTFALL       0.00     3.05     0  09:32           0       0.204       0.000
  
  
  **********************
  Node Surcharge Summary
  **********************
  
  No nodes were surcharged.
  
  
  *********************
  Node Flooding Summary
  *********************
  
  No nodes were flooded.
  
  
  ***********************
  Outfall Loading Summary
  ***********************
  
  -------------------------------------------------------------------------
                         Flow       Avg       Max       Total         Total
                         Freq      Flow      Flow      Volume         Zinco
  Outfall Node           Pcnt       LPS       LPS    10^6 ltr            kg
  -------------------------------------------------------------------------
  ae                     0.00      0.00      0.00       0.000         0.000
  an                     0.00      0.00      0.00       0.000         0.000
  af                     0.00      0.00      0.00       0.000         0.000
  107a                  96.02      2.46      3.05       0.204         0.531
  -------------------------------------------------------------------------
  System                24.01      2.46      3.05       0.204         0.531
  
  
  ********************
  Link Flow Summary
  ********************
  
  -----------------------------------------------------------------------------
                                 Maximum  Time of Max   Maximum    Max/    Max/
                                  |Flow|   Occurrence   |Veloc|    Full    Full
  Link                 Type          LPS  days hr:min     m/sec    Flow   Depth
  -----------------------------------------------------------------------------
  8-9                  CONDUIT      0.00     0  00:00      0.00    0.00    0.00
  9-10                 CONDUIT      0.00     0  00:00      0.00    0.00    0.00
  10-11                CONDUIT      0.00     0  00:00      0.00    0.00    0.00
  11-A                 CONDUIT      0.11     0  00:02      0.41    0.00    0.02
  12-A                 CONDUIT      0.03     0  21:36      0.05    0.00    0.02
  A-13                 CONDUIT      0.12     0  00:24      0.12    0.00    0.02
  13-14                CONDUIT      0.11     0  00:31      0.17    0.00    0.02
  14-15                CONDUIT      0.13     0  00:37      0.16    0.00    0.01
  15-16                CONDUIT      0.13     0  00:42      0.16    0.00    0.01
  16-17                CONDUIT      0.13     0  00:47      0.17    0.00    0.01
  17-18                CONDUIT      0.13     0  00:50      0.18    0.00    0.01
  18-19                CONDUIT      0.13     0  00:56      0.17    0.00    0.01
  19-20                CONDUIT      0.13     0  01:10      0.27    0.00    0.01
  20-21                CONDUIT      0.13     0  01:13      0.12    0.00    0.01
  21-22                CONDUIT      0.13     0  01:16      0.04    0.00    0.03
  22-23                CONDUIT      0.13     0  22:34      0.03    0.00    0.04
  23-24                CONDUIT      0.15     0  22:39      0.15    0.00    0.01
  24-25                CONDUIT      0.15     0  22:44      0.22    0.00    0.01
  26-27                CONDUIT      0.00     0  00:00      0.00    0.00    0.00
  27-28                CONDUIT      0.00     0  00:00      0.00    0.00    0.00
  28-29                CONDUIT      0.00     0  00:00      0.00    0.00    0.01
  38-39                CONDUIT      0.00     0  00:00      0.00    0.00    0.00
  39-29                CONDUIT      0.00     0  00:00      0.00    0.00    0.00
  29-30                CONDUIT      0.03     0  00:07      0.14    0.00    0.02
  30-31                CONDUIT      0.03     0  00:38      0.08    0.00    0.02
  31-32                CONDUIT      0.03     0  00:53      0.20    0.00    0.01
  40-32                CONDUIT      0.00     0  00:00      0.00    0.00    0.00
  32-33                CONDUIT      0.03     0  00:56      0.11    0.00    0.02
  33-34                CONDUIT      0.03     0  01:25      0.06    0.00    0.02
  34-35                CONDUIT      0.03     0  01:38      0.19    0.00    0.01
  41-42                CONDUIT      0.00     0  00:00      0.00    0.00    0.00
  42-43                CONDUIT      0.00     0  00:00      0.00    0.00    0.00
  43-44                CONDUIT      0.00     0  00:00      0.00    0.00    0.00
  44-35                CONDUIT      0.00     0  00:00      0.00    0.00    0.00
  35-36                CONDUIT      0.03     0  01:44      0.09    0.00    0.01
  36-37                CONDUIT      0.03     0  02:05      0.00    0.00    0.00
  37-25                CONDUIT      0.03     0  02:07      0.02    0.00    0.01
  25-46                CONDUIT      0.18     0  22:46      0.15    0.00    0.01
  46-47                CONDUIT      0.18     0  02:22      0.16    0.00    0.01
  47-48                CONDUIT      0.18     0  02:28      0.17    0.00    0.01
  48-49                CONDUIT      0.18     0  02:32      0.14    0.00    0.02
  49-50                CONDUIT      0.18     0  02:38      0.15    0.00    0.01
  50-51                CONDUIT      0.18     0  02:42      0.22    0.00    0.01
  108-109              CONDUIT      0.02     0  00:15      0.09    0.00    0.01
  109-110              CONDUIT      0.02     0  00:28      0.09    0.00    0.01
  110-111              CONDUIT      0.02     0  00:38      0.10    0.00    0.01
  111-112              CONDUIT      0.02     0  00:43      0.10    0.00    0.02
  112-51               CONDUIT      0.02     0  15:05      0.06    0.00    0.01
  51-52                CONDUIT      0.20     0  23:09      0.18    0.00    0.01
  52-53                CONDUIT      0.20     0  02:48      0.15    0.00    0.01
  53-54                CONDUIT      0.20     0  02:53      0.16    0.00    0.01
  54-55                CONDUIT      0.23     0  23:19      0.16    0.00    0.01
  55-56                CONDUIT      0.23     0  23:24      0.30    0.00    0.01
  56-57                CONDUIT      0.23     0  23:27      0.12    0.00    0.01
  57-58                CONDUIT      0.23     0  23:31      0.14    0.00    0.01
  58-59                CONDUIT      0.23     0  23:35      0.13    0.00    0.01
  59-60                CONDUIT      0.23     0  23:38      0.11    0.00    0.01
  113-114              CONDUIT      0.00     0  00:00      0.00    0.00    0.00
  114-115              CONDUIT      0.00     0  00:00      0.00    0.00    0.00
  115-116              CONDUIT      0.04     0  00:10      0.10    0.00    0.01
  116-117              CONDUIT      0.04     0  00:22      0.10    0.00    0.01
  117-118              CONDUIT      0.03     0  00:47      0.11    0.00    0.01
  118-119              CONDUIT      0.03     0  00:55      0.10    0.00    0.01
  119-120              CONDUIT      0.03     0  03:21      0.07    0.00    0.01
  120-121              CONDUIT      0.03     0  02:18      0.05    0.00    0.01
  121-122              CONDUIT      0.03     0  02:32      0.06    0.00    0.01
  122-60               CONDUIT      0.03     0  15:12      0.10    0.00    0.01
  60-61                CONDUIT      0.26     0  23:42      0.10    0.00    0.02
  61-62                CONDUIT      0.29     0  02:58      0.20    0.00    0.01
  62-ae                CONDUIT      0.00     0  00:00      0.00    0.00    0.00
  693-692              CONDUIT      0.00     0  00:00      0.00    0.00    0.00
  692-691              CONDUIT      0.00     0  00:00      0.00    0.00    0.02
  691-690              CONDUIT      0.05     0  03:00      0.13    0.00    0.03
  695-694              CONDUIT      0.00     0  00:00      0.00    0.00    0.00
  694-690              CONDUIT      0.00     0  00:00      0.00    0.00    0.00
  690-689              CONDUIT      0.05     0  18:38      0.07    0.00    0.03
  689-688              CONDUIT      0.10     0  20:53      0.10    0.00    0.02
  688-687              CONDUIT      0.10     0  20:58      0.20    0.00    0.01
  696-687              CONDUIT      0.00     0  00:00      0.00    0.00    0.00
  687-686              CONDUIT      0.35     0  21:15      0.17    0.00    0.03
  686-685              CONDUIT      0.35     0  17:55      0.18    0.00    0.04
  697-685              CONDUIT      0.00     0  00:00      0.00    0.00    0.00
  685-684              CONDUIT      0.35     0  22:59      0.12    0.00    0.03
  684-683              CONDUIT      0.55     0  21:50      0.46    0.00    0.02
  683-682              CONDUIT      0.75     0  22:41      0.22    0.00    0.02
  682-681              CONDUIT      0.75     0  18:20      0.23    0.00    0.02
  681-680              CONDUIT      0.75     0  19:05      0.18    0.00    0.03
  680-679              CONDUIT      0.91     0  17:09      0.24    0.00    0.03
  679-678              CONDUIT      0.91     0  18:18      0.19    0.00    0.03
  678-677              CONDUIT      0.91     0  21:35      0.20    0.00    0.03
  677-676              CONDUIT      0.91     0  19:07      0.23    0.00    0.03
  676-675              CONDUIT      0.92     0  09:03      0.33    0.00    0.02
  675-674              CONDUIT      0.95     0  06:01      0.27    0.00    0.02
  701-700              CONDUIT      0.00     0  00:00      0.00    0.00    0.00
  700-699              CONDUIT      0.00     0  00:00      0.00    0.00    0.01
  699-674              CONDUIT      0.17     0  00:59      0.31    0.00    0.01
  674-673              CONDUIT      1.61     0  06:03      0.30    0.00    0.02
  673-672              CONDUIT      1.58     0  09:00      0.27    0.00    0.03
  672-671              CONDUIT      1.58     0  06:14      0.28    0.00    0.03
  671-670              CONDUIT      1.58     0  06:17      0.30    0.00    0.02
  670-669              CONDUIT      1.59     0  06:19      0.27    0.00    0.03
  669-668              CONDUIT      1.59     0  06:23      0.12    0.00    0.06
  668-665              CONDUIT      1.58     0  06:31      0.09    0.00    0.05
  665-an               CONDUIT      0.00     0  00:00      0.00    0.00    0.00
  665-667              CONDUIT      1.58     0  06:31      2.03    0.01    0.38
  62-B                 CONDUIT      0.29     0  02:58      0.31    0.00    0.04
  B-63                 CONDUIT      0.27     0  03:00      0.27    0.00    0.04
  63-64                CONDUIT      0.26     0  23:49      0.22    0.00    0.05
  64-65                CONDUIT      0.26     0  23:52      0.21    0.00    0.05
  65-66                CONDUIT      0.26     0  23:55      0.22    0.00    0.05
  66-67                CONDUIT      0.26     0  23:58      0.21    0.00    0.05
  67-68                CONDUIT      0.26     1  00:00      0.21    0.00    0.05
  68-69                CONDUIT      0.26     1  00:00      0.21    0.00    0.05
  69-70                CONDUIT      0.26     1  00:00      0.22    0.00    0.05
  70-71                CONDUIT      0.26     1  00:00      0.15    0.00    0.06
  71-72                CONDUIT      0.28     1  00:00      0.14    0.01    0.07
  72-73                CONDUIT      0.28     0  15:20      0.22    0.00    0.05
  73-74                CONDUIT      0.28     0  16:54      0.23    0.00    0.05
  74-75                CONDUIT      0.28     0  16:01      0.22    0.00    0.05
  75-76                CONDUIT      0.28     0  16:07      0.09    0.00    0.05
  76-77                CONDUIT      1.86     0  06:34      0.43    0.01    0.07
  77-78                CONDUIT      1.86     0  06:39      0.27    0.01    0.08
  78-79                CONDUIT      1.86     0  09:02      0.23    0.01    0.09
  79-80                CONDUIT      1.86     0  09:02      0.21    0.02    0.09
  80-81                CONDUIT      1.86     0  09:03      0.29    0.01    0.07
  81-82                CONDUIT      1.86     0  09:04      0.28    0.01    0.08
  82-83                CONDUIT      1.86     0  09:05      0.26    0.01    0.08
  83-84                CONDUIT      1.86     0  09:06      0.28    0.01    0.07
  84-85                CONDUIT      1.86     0  09:07      0.27    0.01    0.08
  85-86                CONDUIT      1.86     0  06:58      0.27    0.01    0.08
  86-87                CONDUIT      1.86     0  09:09      0.26    0.01    0.08
  87-88                CONDUIT      1.86     0  09:11      0.27    0.01    0.08
  88-89                CONDUIT      1.86     0  09:11      0.31    0.01    0.07
  89-90                CONDUIT      1.86     0  09:13      0.26    0.01    0.09
  90-91                CONDUIT      1.86     0  09:14      0.18    0.02    0.10
  91-92                CONDUIT      1.86     0  09:16      0.21    0.02    0.09
  92-93                CONDUIT      2.96     0  09:17      0.38    0.01    0.06
  93-94                CONDUIT      2.96     0  09:17      0.23    0.01    0.09
  94-95                CONDUIT      2.96     0  09:19      0.25    0.15    0.09
  95-96                CONDUIT      2.96     0  09:19      0.36    0.01    0.07
  96-97                CONDUIT      2.96     0  09:20      0.20    0.01    0.10
  97-98                CONDUIT      2.96     0  09:21      0.24    0.01    0.09
  98-99                CONDUIT      3.05     0  09:22      0.46    0.01    0.06
  99-100               CONDUIT      3.05     0  09:23      0.37    0.01    0.07
  100-101              CONDUIT      3.05     0  09:24      0.38    0.01    0.07
  101-102              CONDUIT      3.05     0  09:25      0.39    0.01    0.06
  102-103              CONDUIT      3.05     0  09:26      0.50    0.01    0.06
  145-103              CONDUIT      0.04     0  02:52      0.00    0.00    0.03
  103-104              CONDUIT      3.05     0  09:27      0.11    0.00    0.04
  104-105              CONDUIT      3.05     0  09:29      0.20    0.01    0.03
  105-106              CONDUIT      3.05     0  09:29      0.30    0.00    0.02
  106-107a             CONDUIT      3.05     0  09:32      0.46    0.00    0.02
  C-af                 CONDUIT      0.00     0  00:00      0.00    0.00    0.00
  140-C                CONDUIT      0.00     0  00:00      0.00    0.00    0.00
  140-141              CONDUIT      0.00     0  00:00      0.00    0.00    0.02
  141-142              CONDUIT      0.11     0  00:12      0.15    0.00    0.04
  142-143              CONDUIT      0.10     0  00:25      0.12    0.00    0.04
  143-98               CONDUIT      0.10     0  00:31      0.22    0.00    0.02
  123-124              CONDUIT      0.00     0  00:00      0.00    0.00    0.00
  124-125              CONDUIT      0.00     0  00:00      0.00    0.00    0.00
  125-126              CONDUIT      0.00     0  00:00      0.00    0.00    0.00
  126-127              CONDUIT      0.34     0  00:07      0.27    0.00    0.03
  127-128              CONDUIT      0.33     0  00:20      0.17    0.00    0.03
  128-129              CONDUIT      0.37     0  00:26      0.15    0.00    0.03
  129-130              CONDUIT      0.64     0  03:19      0.30    0.00    0.03
  130-131              CONDUIT      0.64     0  04:06      0.29    0.00    0.03
  131-132              CONDUIT      0.64     0  03:25      0.16    0.00    0.04
  132-133              CONDUIT      0.92     0  05:52      0.21    0.00    0.04
  133-134              CONDUIT      0.92     0  07:37      0.37    0.00    0.03
  134-135              CONDUIT      0.92     0  07:37      0.97    0.00    0.05
  135-136              CONDUIT      0.92     0  03:33      0.32    0.01    0.08
  136-137              CONDUIT      0.92     0  04:05      0.35    0.01    0.08
  137-138              CONDUIT      0.92     0  03:44      0.24    0.01    0.07
  138-139              CONDUIT      1.01     0  13:04      0.30    0.01    0.06
  139-92               CONDUIT      1.01     0  03:52      0.38    0.01    0.07
  pompa667             PUMP        40.00     0  01:26              1.00
  
  
  ***************************
  Flow Classification Summary
  ***************************
  
  -------------------------------------------------------------------------------------
                      Adjusted    ---------- Fraction of Time in Flow Class ---------- 
                       /Actual         Up    Down  Sub   Sup   Up    Down  Norm  Inlet 
  Conduit               Length    Dry  Dry   Dry   Crit  Crit  Crit  Crit  Ltd   Ctrl  
  -------------------------------------------------------------------------------------
  8-9                     1.00   1.00  0.00  0.00  0.00  0.00  0.00  0.00  0.00  0.00
  9-10                    1.00   1.00  0.00  0.00  0.00  0.00  0.00  0.00  0.00  0.00
  10-11                   1.00   1.00  0.00  0.00  0.00  0.00  0.00  0.00  0.00  0.00
  11-A                    1.00   0.00  0.00  0.00  1.00  0.00  0.00  0.00  1.00  0.00
  12-A                    1.00   0.00  0.00  0.00  1.00  0.00  0.00  0.00  0.00  0.00
  A-13                    1.00   0.00  0.00  0.00  1.00  0.00  0.00  0.00  0.00  0.00
  13-14                   1.00   0.00  0.00  0.00  1.00  0.00  0.00  0.00  1.00  0.00
  14-15                   1.00   0.00  0.00  0.00  1.00  0.00  0.00  0.00  0.98  0.00
  15-16                   1.00   0.00  0.00  0.00  1.00  0.00  0.00  0.00  0.00  0.00
  16-17                   1.00   0.00  0.00  0.00  1.00  0.00  0.00  0.00  0.02  0.00
  17-18                   1.00   0.00  0.00  0.00  1.00  0.00  0.00  0.00  0.00  0.00
  18-19                   1.00   0.01  0.00  0.00  0.99  0.00  0.00  0.00  0.98  0.00
  19-20                   1.00   0.01  0.00  0.00  0.00  0.00  0.00  0.99  0.00  0.00
  20-21                   1.00   0.01  0.00  0.00  0.99  0.00  0.00  0.00  0.00  0.00
  21-22                   1.00   0.00  0.01  0.00  0.99  0.00  0.00  0.00  0.99  0.00
  22-23                   1.00   0.00  0.00  0.00  1.00  0.00  0.00  0.00  0.04  0.00
  23-24                   1.00   0.00  0.00  0.00  1.00  0.00  0.00  0.00  0.99  0.00
  24-25                   1.00   0.00  0.00  0.00  0.00  0.00  0.00  1.00  0.00  0.00
  26-27                   1.00   1.00  0.00  0.00  0.00  0.00  0.00  0.00  0.00  0.00
  27-28                   1.00   1.00  0.00  0.00  0.00  0.00  0.00  0.00  0.00  0.00
  28-29                   1.00   0.00  1.00  0.00  0.00  0.00  0.00  0.00  0.00  0.00
  38-39                   1.00   1.00  0.00  0.00  0.00  0.00  0.00  0.00  0.00  0.00
  39-29                   1.00   1.00  0.00  0.00  0.00  0.00  0.00  0.00  0.00  0.00
  29-30                   1.00   0.00  0.00  0.00  1.00  0.00  0.00  0.00  0.99  0.00
  30-31                   1.00   0.00  0.00  0.00  1.00  0.00  0.00  0.00  0.00  0.00
  31-32                   1.00   0.00  0.00  0.00  0.00  0.00  0.00  1.00  0.00  0.00
  40-32                   1.00   1.00  0.00  0.00  0.00  0.00  0.00  0.00  0.00  0.00
  32-33                   1.00   0.01  0.00  0.00  0.99  0.00  0.00  0.00  0.98  0.00
  33-34                   1.00   0.01  0.00  0.00  0.99  0.00  0.00  0.00  0.00  0.00
  34-35                   1.00   0.01  0.00  0.00  0.00  0.00  0.00  0.99  0.00  0.00
  41-42                   1.00   1.00  0.00  0.00  0.00  0.00  0.00  0.00  0.00  0.00
  42-43                   1.00   1.00  0.00  0.00  0.00  0.00  0.00  0.00  0.00  0.00
  43-44                   1.00   1.00  0.00  0.00  0.00  0.00  0.00  0.00  0.00  0.00
  44-35                   1.00   0.02  0.98  0.00  0.00  0.00  0.00  0.00  0.00  0.00
  35-36                   1.00   0.02  0.00  0.00  0.98  0.00  0.00  0.00  0.00  0.00
  36-37                   1.00   0.02  0.00  0.00  0.91  0.00  0.00  0.06  0.00  0.00
  37-25                   1.00   0.00  0.08  0.00  0.91  0.00  0.00  0.00  0.91  0.00
  25-46                   1.00   0.02  0.00  0.00  0.98  0.00  0.00  0.00  0.96  0.00
  46-47                   1.00   0.02  0.00  0.00  0.98  0.00  0.00  0.00  0.00  0.00
  47-48                   1.00   0.02  0.00  0.00  0.98  0.00  0.00  0.00  0.92  0.00
  48-49                   1.00   0.02  0.00  0.00  0.98  0.00  0.00  0.00  0.97  0.00
  49-50                   1.00   0.02  0.00  0.00  0.98  0.00  0.00  0.00  0.00  0.00
  50-51                   1.00   0.01  0.01  0.00  0.97  0.00  0.00  0.00  0.05  0.00
  108-109                 1.00   0.00  0.00  0.00  1.00  0.00  0.00  0.00  0.99  0.00
  109-110                 1.00   0.00  0.00  0.00  1.00  0.00  0.00  0.00  0.00  0.00
  110-111                 1.00   0.00  0.00  0.00  1.00  0.00  0.00  0.00  0.00  0.00
  111-112                 1.00   0.01  0.00  0.00  0.99  0.00  0.00  0.00  0.98  0.00
  112-51                  1.00   0.01  0.00  0.00  0.00  0.00  0.00  0.99  0.00  0.00
  51-52                   1.00   0.01  0.00  0.00  0.99  0.00  0.00  0.00  0.98  0.00
  52-53                   1.00   0.02  0.00  0.00  0.98  0.00  0.00  0.00  0.00  0.00
  53-54                   1.00   0.00  0.02  0.00  0.98  0.00  0.00  0.00  0.98  0.00
  54-55                   1.00   0.00  0.00  0.00  1.00  0.00  0.00  0.00  0.98  0.00
  55-56                   1.00   0.00  0.00  0.00  0.00  0.00  0.00  1.00  0.00  0.00
  56-57                   1.00   0.00  0.00  0.00  1.00  0.00  0.00  0.00  0.00  0.00
  57-58                   1.00   0.00  0.00  0.00  1.00  0.00  0.00  0.00  0.99  0.00
  58-59                   1.00   0.00  0.00  0.00  1.00  0.00  0.00  0.00  0.99  0.00
  59-60                   1.00   0.01  0.00  0.00  0.99  0.00  0.00  0.00  0.99  0.00
  113-114                 1.00   1.00  0.00  0.00  0.00  0.00  0.00  0.00  0.00  0.00
  114-115                 1.00   0.00  1.00  0.00  0.00  0.00  0.00  0.00  0.00  0.00
  115-116                 1.00   0.00  0.00  0.00  1.00  0.00  0.00  0.00  0.99  0.00
  116-117                 1.00   0.00  0.00  0.00  1.00  0.00  0.00  0.00  0.98  0.00
  117-118                 1.00   0.00  0.00  0.00  0.00  0.00  0.00  1.00  0.00  0.00
  118-119                 1.00   0.00  0.00  0.00  1.00  0.00  0.00  0.00  0.98  0.00
  119-120                 1.00   0.01  0.00  0.00  0.99  0.00  0.00  0.00  0.98  0.00
  120-121                 1.00   0.01  0.00  0.00  0.99  0.00  0.00  0.00  0.00  0.00
  121-122                 1.00   0.01  0.00  0.00  0.99  0.00  0.00  0.00  0.96  0.00
  122-60                  1.00   0.02  0.00  0.00  0.00  0.00  0.00  0.98  0.00  0.00
  60-61                   1.00   0.01  0.00  0.00  0.99  0.00  0.00  0.00  0.97  0.00
  61-62                   1.00   0.01  0.00  0.00  0.00  0.00  0.00  0.99  0.00  0.00
  62-ae                   1.00   1.00  0.00  0.00  0.00  0.00  0.00  0.00  0.00  0.00
  693-692                 1.00   1.00  0.00  0.00  0.00  0.00  0.00  0.00  0.00  0.00
  692-691                 1.00   0.00  1.00  0.00  0.00  0.00  0.00  0.00  0.00  0.00
  691-690                 1.00   0.00  0.00  0.00  0.00  0.00  0.00  1.00  0.00  0.00
  695-694                 1.00   1.00  0.00  0.00  0.00  0.00  0.00  0.00  0.00  0.00
  694-690                 1.00   1.00  0.00  0.00  0.00  0.00  0.00  0.00  0.00  0.00
  690-689                 1.00   0.00  0.00  0.00  0.00  0.00  0.00  1.00  0.00  0.00
  689-688                 1.00   0.00  0.00  0.00  1.00  0.00  0.00  0.00  0.99  0.00
  688-687                 1.00   0.00  0.00  0.00  0.00  0.00  0.00  1.00  0.00  0.00
  696-687                 1.00   1.00  0.00  0.00  0.00  0.00  0.00  0.00  0.00  0.00
  687-686                 1.00   0.00  0.00  0.00  1.00  0.00  0.00  0.00  0.00  0.00
  686-685                 1.00   0.00  0.00  0.00  1.00  0.00  0.00  0.00  0.99  0.00
  697-685                 1.00   1.00  0.00  0.00  0.00  0.00  0.00  0.00  0.00  0.00
  685-684                 1.00   0.00  0.00  0.00  0.00  0.00  0.00  1.00  0.00  0.00
  684-683                 1.00   0.00  0.00  0.00  0.00  0.00  0.00  1.00  0.00  0.00
  683-682                 1.00   0.00  0.00  0.00  1.00  0.00  0.00  0.00  0.00  0.00
  682-681                 1.00   0.00  0.00  0.00  1.00  0.00  0.00  0.00  0.99  0.00
  681-680                 1.00   0.00  0.00  0.00  1.00  0.00  0.00  0.00  0.01  0.00
  680-679                 1.00   0.00  0.00  0.00  1.00  0.00  0.00  0.00  0.99  0.00
  679-678                 1.00   0.00  0.00  0.00  1.00  0.00  0.00  0.00  0.99  0.00
  678-677                 1.00   0.00  0.00  0.00  1.00  0.00  0.00  0.00  0.00  0.00
  677-676                 1.00   0.00  0.00  0.00  1.00  0.00  0.00  0.00  0.99  0.00
  676-675                 1.00   0.01  0.00  0.00  0.99  0.00  0.00  0.01  0.00  0.00
  675-674                 1.00   0.00  0.01  0.00  0.99  0.00  0.00  0.00  0.00  0.00
  701-700                 1.00   1.00  0.00  0.00  0.00  0.00  0.00  0.00  0.00  0.00
  700-699                 1.00   0.00  1.00  0.00  0.00  0.00  0.00  0.00  0.00  0.00
  699-674                 1.00   0.00  0.00  0.00  0.00  0.00  0.00  1.00  0.00  0.00
  674-673                 1.00   0.00  0.00  0.00  1.00  0.00  0.00  0.00  0.98  0.00
  673-672                 1.00   0.00  0.00  0.00  1.00  0.00  0.00  0.00  0.99  0.00
  672-671                 1.00   0.00  0.00  0.00  1.00  0.00  0.00  0.00  0.00  0.00
  671-670                 1.00   0.00  0.00  0.00  1.00  0.00  0.00  0.00  0.99  0.00
  670-669                 1.00   0.01  0.00  0.00  0.99  0.00  0.00  0.00  0.01  0.00
  669-668                 1.00   0.01  0.00  0.00  0.99  0.00  0.00  0.00  0.98  0.00
  668-665                 1.00   0.01  0.03  0.00  0.00  0.00  0.96  0.00  0.00  0.00
  665-an                  1.00   1.00  0.00  0.00  0.00  0.00  0.00  0.00  0.00  0.00
  665-667                 1.00   0.04  0.00  0.00  0.00  0.00  0.00  0.96  0.00  0.00
  62-B                    1.00   0.01  0.00  0.00  0.11  0.88  0.00  0.00  0.86  0.00
  B-63                    1.00   0.01  0.00  0.00  0.99  0.00  0.00  0.00  0.97  0.00
  63-64                   1.00   0.02  0.00  0.00  0.98  0.00  0.00  0.00  0.95  0.00
  64-65                   1.00   0.02  0.00  0.00  0.98  0.00  0.00  0.00  0.00  0.00
  65-66                   1.00   0.03  0.00  0.00  0.97  0.00  0.00  0.00  0.00  0.00
  66-67                   1.00   0.03  0.00  0.00  0.97  0.00  0.00  0.00  0.95  0.00
  67-68                   1.00   0.04  0.00  0.00  0.96  0.00  0.00  0.00  0.00  0.00
  68-69                   1.00   0.04  0.00  0.00  0.96  0.00  0.00  0.00  0.94  0.00
  69-70                   1.00   0.05  0.00  0.00  0.95  0.00  0.00  0.00  0.00  0.00
  70-71                   1.00   0.00  0.05  0.00  0.95  0.00  0.00  0.00  0.95  0.00
  71-72                   1.00   0.00  0.00  0.00  1.00  0.00  0.00  0.00  0.00  0.00
  72-73                   1.00   0.00  0.00  0.00  1.00  0.00  0.00  0.00  0.90  0.00
  73-74                   1.00   0.01  0.00  0.00  0.99  0.00  0.00  0.00  0.00  0.00
  74-75                   1.00   0.01  0.00  0.00  0.99  0.00  0.00  0.00  0.95  0.00
  75-76                   1.00   0.02  0.00  0.00  0.98  0.00  0.00  0.00  0.94  0.00
  76-77                   1.00   0.02  0.00  0.00  0.98  0.00  0.00  0.00  0.96  0.00
  77-78                   1.00   0.02  0.00  0.00  0.98  0.00  0.00  0.00  0.95  0.00
  78-79                   1.00   0.03  0.00  0.00  0.97  0.00  0.00  0.00  0.95  0.00
  79-80                   1.00   0.03  0.00  0.00  0.97  0.00  0.00  0.00  0.00  0.00
  80-81                   1.00   0.04  0.00  0.00  0.96  0.00  0.00  0.00  0.00  0.00
  81-82                   1.00   0.04  0.00  0.00  0.96  0.00  0.00  0.00  0.94  0.00
  82-83                   1.00   0.05  0.00  0.00  0.95  0.00  0.00  0.00  0.00  0.00
  83-84                   1.00   0.05  0.00  0.00  0.95  0.00  0.00  0.00  0.02  0.00
  84-85                   1.00   0.05  0.00  0.00  0.95  0.00  0.00  0.00  0.91  0.00
  85-86                   1.00   0.06  0.00  0.00  0.94  0.00  0.00  0.00  0.01  0.00
  86-87                   1.00   0.06  0.00  0.00  0.94  0.00  0.00  0.00  0.91  0.00
  87-88                   1.00   0.07  0.00  0.00  0.93  0.00  0.00  0.00  0.00  0.00
  88-89                   1.00   0.07  0.00  0.00  0.93  0.00  0.00  0.00  0.90  0.00
  89-90                   1.00   0.08  0.00  0.00  0.92  0.00  0.00  0.00  0.90  0.00
  90-91                   1.00   0.08  0.00  0.00  0.92  0.00  0.00  0.00  0.89  0.00
  91-92                   1.00   0.00  0.09  0.00  0.91  0.00  0.00  0.00  0.02  0.00
  92-93                   1.00   0.00  0.00  0.00  1.00  0.00  0.00  0.00  0.99  0.00
  93-94                   1.00   0.00  0.00  0.00  1.00  0.00  0.00  0.00  0.99  0.00
  94-95                   1.00   0.00  0.00  0.00  1.00  0.00  0.00  0.00  0.00  0.00
  95-96                   1.00   0.00  0.00  0.00  1.00  0.00  0.00  0.00  0.99  0.00
  96-97                   1.00   0.01  0.00  0.00  0.99  0.00  0.00  0.00  0.99  0.00
  97-98                   1.00   0.01  0.00  0.00  0.99  0.00  0.00  0.00  0.01  0.00
  98-99                   1.00   0.01  0.00  0.00  0.99  0.00  0.00  0.00  0.94  0.00
  99-100                  1.00   0.01  0.00  0.00  0.99  0.00  0.00  0.00  0.98  0.00
  100-101                 1.00   0.01  0.00  0.00  0.89  0.00  0.00  0.09  0.00  0.00
  101-102                 1.00   0.01  0.00  0.00  0.99  0.00  0.00  0.00  0.00  0.00
  102-103                 1.00   0.02  0.00  0.00  0.00  0.00  0.00  0.98  0.00  0.00
  145-103                 1.00   0.02  0.03  0.00  0.95  0.00  0.00  0.00  0.00  0.00
  103-104                 1.00   0.02  0.01  0.00  0.97  0.00  0.00  0.00  0.00  0.00
  104-105                 1.00   0.03  0.00  0.00  0.97  0.00  0.00  0.00  0.00  0.00
  105-106                 1.00   0.03  0.00  0.00  0.97  0.00  0.00  0.00  0.97  0.00
  106-107a                1.00   0.03  0.00  0.00  0.09  0.88  0.00  0.00  0.00  0.00
  C-af                    1.00   1.00  0.00  0.00  0.00  0.00  0.00  0.00  0.00  0.00
  140-C                   1.00   1.00  0.00  0.00  0.00  0.00  0.00  0.00  0.00  0.00
  140-141                 1.00   0.00  1.00  0.00  0.00  0.00  0.00  0.00  0.00  0.00
  141-142                 1.00   0.00  0.00  0.00  1.00  0.00  0.00  0.00  0.99  0.00
  142-143                 1.00   0.00  0.00  0.00  1.00  0.00  0.00  0.00  0.00  0.00
  143-98                  1.00   0.00  0.00  0.00  0.00  0.00  0.00  1.00  0.00  0.00
  123-124                 1.00   1.00  0.00  0.00  0.00  0.00  0.00  0.00  0.00  0.00
  124-125                 1.00   1.00  0.00  0.00  0.00  0.00  0.00  0.00  0.00  0.00
  125-126                 1.00   1.00  0.00  0.00  0.00  0.00  0.00  0.00  0.00  0.00
  126-127                 1.00   0.00  0.00  0.00  1.00  0.00  0.00  0.00  0.99  0.00
  127-128                 1.00   0.00  0.00  0.00  1.00  0.00  0.00  0.00  0.00  0.00
  128-129                 1.00   0.00  0.00  0.00  1.00  0.00  0.00  0.00  1.00  0.00
  129-130                 1.00   0.00  0.00  0.00  0.00  0.00  0.00  1.00  0.00  0.00
  130-131                 1.00   0.00  0.00  0.00  0.00  0.00  0.00  1.00  0.00  0.00
  131-132                 1.00   0.00  0.00  0.00  1.00  0.00  0.00  0.00  1.00  0.00
  132-133                 1.00   0.00  0.00  0.00  1.00  0.00  0.00  0.00  0.00  0.00
  133-134                 1.00   0.00  0.00  0.00  0.01  0.99  0.00  0.00  0.00  0.00
  134-135                 1.00   0.00  0.00  0.00  0.00  0.00  0.00  1.00  0.00  0.00
  135-136                 1.00   0.00  0.00  0.00  0.99  0.00  0.00  0.00  0.98  0.00
  136-137                 1.00   0.00  0.00  0.00  0.00  0.00  0.00  1.00  0.00  0.00
  137-138                 1.00   0.00  0.01  0.00  0.99  0.00  0.00  0.00  0.99  0.00
  138-139                 1.00   0.00  0.00  0.00  1.00  0.00  0.00  0.00  0.00  0.00
  139-92                  1.00   0.00  0.00  0.00  1.00  0.00  0.00  0.00  1.00  0.00
  
  
  *************************
  Conduit Surcharge Summary
  *************************
  
  No conduits were surcharged.
  
  
  ***************
  Pumping Summary
  ***************
  
  ---------------------------------------------------------------------------------------------------------
                                                  Min       Avg       Max     Total     Power    % Time Off
                        Percent   Number of      Flow      Flow      Flow    Volume     Usage    Pump Curve
  Pump                 Utilized   Start-Ups       LPS       LPS       LPS  10^6 ltr     Kw-hr    Low   High
  ---------------------------------------------------------------------------------------------------------
  pompa667                94.01           1      0.00      1.15     40.00     0.093      0.22    0.0  100.0
  
  
  ***************************
  Link Pollutant Load Summary
  ***************************
  
  ----------------------------------
                               Zinco
  Link                            kg
  ----------------------------------
  8-9                          0.000
  9-10                         0.000
  10-11                        0.000
  11-A                         0.000
  12-A                         0.000
  A-13                         0.000
  13-14                        0.000
  14-15                        0.000
  15-16                        0.000
  16-17                        0.000
  17-18                        0.000
  18-19                        0.000
  19-20                        0.000
  20-21                        0.000
  21-22                        0.000
  22-23                        0.000
  23-24                        0.000
  24-25                        0.000
  26-27                        0.000
  27-28                        0.000
  28-29                        0.000
  38-39                        0.000
  39-29                        0.000
  29-30                        0.000
  30-31                        0.000
  31-32                        0.000
  40-32                        0.000
  32-33                        0.000
  33-34                        0.000
  34-35                        0.000
  41-42                        0.000
  42-43                        0.000
  43-44                        0.000
  44-35                        0.000
  35-36                        0.000
  36-37                        0.000
  37-25                        0.000
  25-46                        0.000
  46-47                        0.000
  47-48                        0.000
  48-49                        0.000
  49-50                        0.000
  50-51                        0.000
  108-109                      0.000
  109-110                      0.000
  110-111                      0.000
  111-112                      0.000
  112-51                       0.000
  51-52                        0.000
  52-53                        0.000
  53-54                        0.000
  54-55                        0.000
  55-56                        0.000
  56-57                        0.000
  57-58                        0.000
  58-59                        0.000
  59-60                        0.000
  113-114                      0.000
  114-115                      0.000
  115-116                      0.000
  116-117                      0.000
  117-118                      0.000
  118-119                      0.000
  119-120                      0.000
  120-121                      0.000
  121-122                      0.000
  122-60                       0.000
  60-61                        0.000
  61-62                        0.000
  62-ae                        0.000
  693-692                      0.000
  692-691                      0.000
  691-690                      0.000
  695-694                      0.000
  694-690                      0.000
  690-689                      0.000
  689-688                      0.000
  688-687                      0.000
  696-687                      0.000
  687-686                      0.000
  686-685                      0.000
  697-685                      0.000
  685-684                      0.000
  684-683                      0.000
  683-682                      0.000
  682-681                      0.000
  681-680                      0.000
  680-679                      0.000
  679-678                      0.000
  678-677                      0.000
  677-676                      0.000
  676-675                      0.000
  675-674                      0.000
  701-700                      0.000
  700-699                      0.000
  699-674                      0.000
  674-673                      0.527
  673-672                      0.527
  672-671                      0.527
  671-670                      0.527
  670-669                      0.528
  669-668                      0.528
  668-665                      0.530
  665-an                       0.000
  665-667                      0.530
  62-B                         0.000
  B-63                         0.000
  63-64                        0.000
  64-65                        0.000
  65-66                        0.000
  66-67                        0.000
  67-68                        0.000
  68-69                        0.000
  69-70                        0.000
  70-71                        0.000
  71-72                        0.000
  72-73                        0.000
  73-74                        0.000
  74-75                        0.000
  75-76                        0.000
  76-77                        0.530
  77-78                        0.530
  78-79                        0.529
  79-80                        0.530
  80-81                        0.530
  81-82                        0.530
  82-83                        0.530
  83-84                        0.530
  84-85                        0.530
  85-86                        0.530
  86-87                        0.529
  87-88                        0.531
  88-89                        0.530
  89-90                        0.530
  90-91                        0.530
  91-92                        0.531
  92-93                        0.531
  93-94                        0.531
  94-95                        0.531
  95-96                        0.531
  96-97                        0.531
  97-98                        0.531
  98-99                        0.531
  99-100                       0.531
  100-101                      0.531
  101-102                      0.531
  102-103                      0.531
  145-103                      0.000
  103-104                      0.531
  104-105                      0.531
  105-106                      0.531
  106-107a                     0.531
  C-af                         0.000
  140-C                        0.000
  140-141                      0.000
  141-142                      0.000
  142-143                      0.000
  143-98                       0.000
  123-124                      0.000
  124-125                      0.000
  125-126                      0.000
  126-127                      0.000
  127-128                      0.000
  128-129                      0.000
  129-130                      0.000
  130-131                      0.000
  131-132                      0.000
  132-133                      0.000
  133-134                      0.000
  134-135                      0.000
  135-136                      0.000
  136-137                      0.000
  137-138                      0.000
  138-139                      0.000
  139-92                       0.000
  pompa667                     0.530
  

  Analysis begun on:  Fri Mar  6 14:57:18 2026
  Analysis ended on:  Fri Mar  6 14:57:26 2026
  Total elapsed time: 00:00:08