
  EPA STORM WATER MANAGEMENT MODEL - VERSION 5.2 (Build 5.2.4)
  ------------------------------------------------------------

  Scenario Run :  BASE 
   CID OCP 
  WARNING 04: minimum elevation drop used for Conduit 006-058
  WARNING 04: minimum elevation drop used for Conduit 006-800
  WARNING 04: minimum elevation drop used for Conduit 027-883.1
  WARNING 04: minimum elevation drop used for Conduit 028-079
  
  ****************
  Analysis Options
  ****************
  Flow Units ............... CFS
  Process Models:
    Rainfall/Runoff ........ YES
    RDII ................... NO
    Snowmelt ............... NO
    Groundwater ............ NO
    Flow Routing ........... YES
    Ponding Allowed ........ NO
    Water Quality .......... NO
  Infiltration Method ...... GREEN_AMPT
  Flow Routing Method ...... DYNWAVE
  Surcharge Method ......... EXTRAN
  Starting Date ............ 09/01/2006 00:00:00
  Ending Date .............. 09/03/2006 00:15:00
  Antecedent Dry Days ...... 5.0
  Report Time Step ......... 00:05:00
  Wet Time Step ............ 00:01:00
  Dry Time Step ............ 00:01:00
  Routing Time Step ........ 5.00 sec
  Variable Time Step ....... YES
  Maximum Trials ........... 8
  Number of Threads ........ 1
  Head Tolerance ........... 0.005000 ft
  
  
  **************************        Volume         Depth
  Runoff Quantity Continuity     acre-feet        inches
  **************************     ---------       -------
  Total Precipitation ......      1165.723         3.893
  Evaporation Loss .........         0.000         0.000
  Infiltration Loss ........       453.802         1.515
  Surface Runoff ...........       703.661         2.350
  Final Storage ............         8.436         0.028
  Continuity Error (%) .....        -0.015
  
  
  **************************        Volume        Volume
  Flow Routing Continuity        acre-feet      10^6 gal
  **************************     ---------     ---------
  Dry Weather Inflow .......     12668.138      4128.102
  Wet Weather Inflow .......       703.628       229.288
  Groundwater Inflow .......         0.000         0.000
  RDII Inflow ..............         0.000         0.000
  External Inflow ..........        62.591        20.396
  External Outflow .........      8529.679      2779.523
  Flooding Loss ............      4978.615      1622.356
  Evaporation Loss .........         0.000         0.000
  Exfiltration Loss ........         0.000         0.000
  Initial Stored Volume ....       282.372        92.015
  Final Stored Volume ......       276.976        90.257
  Continuity Error (%) .....        -0.500
  
  
  *************************
  Highest Continuity Errors
  *************************
  Node S028-096 (-4.32%)
  Node S028-102 (-2.36%)
  Node S009-017TA (-1.49%)
  Node S028-092 (-1.32%)
  Node S009-033 (1.06%)
  
  
  ***************************
  Time-Step Critical Elements
  ***************************
  Link 028-169.2 (55.71%)
  Link 028-957 (19.60%)
  Link 009-027 (12.16%)
  Link 010-036 (1.93%)
  Link 009-028 (1.79%)
  
  
  ********************************
  Highest Flow Instability Indexes
  ********************************
  Link 027-860B.1 (149)
  Link 005-835 (149)
  Link 006-048 (148)
  Link 010-070 (142)
  Link 010-071 (142)
  
  
  *********************************
  Most Frequent Nonconverging Nodes
  *********************************
  Node BRWWTP (36.89%)
  Node S006-CSO6 (36.89%)
  Node S009-CSO5 (36.89%)
  Node S012-001TA (36.89%)
  Node S027-CSO4 (36.89%)
  
  
  *************************
  Routing Time Step Summary
  *************************
  Minimum Time Step           :     0.32 sec
  Average Time Step           :     1.82 sec
  Maximum Time Step           :     3.37 sec
  % of Time in Steady State   :     0.00
  Average Iterations per Step :     7.71
  % of Steps Not Converging   :    36.89
  Time Step Frequencies       :
      5.000 -  3.155 sec      :     0.00 %
      3.155 -  1.991 sec      :    29.55 %
      1.991 -  1.256 sec      :    60.27 %
      1.256 -  0.792 sec      :     5.13 %
      0.792 -  0.500 sec      :     5.05 %
  
  
  ***************************
  Subcatchment Runoff Summary
  ***************************
  
  ------------------------------------------------------------------------------------------------------------------------------
                            Total      Total      Total      Total     Imperv       Perv      Total       Total     Peak  Runoff
                           Precip      Runon       Evap      Infil     Runoff     Runoff     Runoff      Runoff   Runoff   Coeff
  Subcatchment                 in         in         in         in         in         in         in    10^6 gal      CFS
  ------------------------------------------------------------------------------------------------------------------------------
  S006-001#1                 3.89       0.00       0.00       1.60       1.35       0.92       2.27        0.99    41.36   0.582
  S006-006#1                 3.89       0.00       0.00       1.49       1.69       0.68       2.37        2.94    81.88   0.608
  S006-011#1                 3.89       0.00       0.00       0.61       2.61       0.61       3.22        3.10    68.01   0.828
  S006-013#1                 3.89       0.00       0.00       0.75       2.35       0.74       3.09        0.89    21.30   0.795
  S006-017#1                 3.89       0.00       0.00       1.39       1.04       1.44       2.48        1.98    49.50   0.637
  S006-020#1                 3.89       0.00       0.00       0.85       2.04       0.96       3.00        1.67    72.76   0.771
  S006-021#1                 3.89       0.00       0.00       1.64       0.70       1.54       2.24        2.27    64.02   0.574
  S006-027#1                 3.89       0.00       0.00       0.55       2.68       0.61       3.29        2.30    79.69   0.845
  S006-031#1                 3.89       0.00       0.00       0.67       2.53       0.64       3.16        2.14    39.44   0.813
  S006-033#1                 3.89       0.00       0.00       0.70       2.46       0.68       3.14        2.28    47.12   0.806
  S006-035#1                 3.89       0.00       0.00       1.10       2.09       0.66       2.75        1.06    40.60   0.707
  S006-037#1                 3.89       0.00       0.00       0.87       1.98       1.00       2.98        1.22    38.27   0.767
  S006-038#1                 3.89       0.00       0.00       1.24       2.02       0.58       2.61        0.96    24.36   0.669
  S006-042#1                 3.89       0.00       0.00       1.18       2.10       0.57       2.66        0.96    24.64   0.684
  S006-044#1                 3.89       0.00       0.00       0.52       2.70       0.62       3.32        0.96    25.80   0.852
  S006-061#1                 3.89       0.00       0.00       1.04       1.88       0.93       2.80        1.77    20.76   0.720
  S006-106#1                 3.89       0.00       0.00       1.76       0.27       1.86       2.12        0.64    14.74   0.546
  S006-127#1                 3.89       0.00       0.00       1.35       1.05       1.47       2.52        0.48    21.28   0.647
  S006-803#1                 3.89       0.00       0.00       0.32       3.14       0.36       3.51        1.08    31.42   0.900
  S008-024#1                 3.89       0.00       0.00       1.23       1.41       1.22       2.63        3.36   108.48   0.676
  S008-035#1                 3.89       0.00       0.00       1.27       1.67       0.91       2.58        2.60    32.22   0.663
  S008-039#1                 3.89       0.00       0.00       1.61       1.25       1.00       2.25        1.51    16.83   0.579
  S009-012#1                 3.89       0.00       0.00       1.40       1.08       1.39       2.47        3.96   130.95   0.633
  S009-032#1                 3.89       0.00       0.00       1.24       1.56       1.06       2.62        0.83    16.80   0.673
  S009-064#1                 3.89       0.00       0.00       0.98       1.88       0.99       2.87        2.11    66.29   0.737
  S009-070#1                 3.89       0.00       0.00       1.56       0.85       1.46       2.31        5.27   150.51   0.594
  S009-081#1                 3.89       0.00       0.00       1.76       0.17       1.96       2.13        1.65    88.06   0.548
  S009-086#1                 3.89       0.00       0.00       2.00       0.19       1.71       1.89        2.00    38.63   0.486
  S009-114#1                 3.89       0.00       0.00       0.73       2.42       0.69       3.11        1.27    25.95   0.800
  S009-116#1                 3.89       0.00       0.00       1.37       1.18       1.32       2.50        0.68    20.86   0.642
  S009-120#1                 3.89       0.00       0.00       1.84       0.53       1.51       2.04        1.62    33.17   0.525
  S009-131#1                 3.89       0.00       0.00       2.37       0.46       1.05       1.51        0.53    17.91   0.388
  S009-801#1                 3.89       0.00       0.00       1.16       1.54       1.16       2.70        2.67    87.21   0.694
  S009-821#1                 3.89       0.00       0.00       1.64       0.90       1.33       2.23        1.85    38.15   0.573
  S010-007#1                 3.89       0.00       0.00       1.91       0.39       1.59       1.98        2.55    50.98   0.508
  S010-025#1                 3.89       0.00       0.00       0.54       2.89       0.40       3.29        0.65    26.90   0.846
  S010-029#1                 3.89       0.00       0.00       0.36       3.07       0.39       3.47        0.88    20.84   0.890
  S010-032#1                 3.89       0.00       0.00       0.36       3.04       0.44       3.47        1.61    67.34   0.892
  S010-033#1                 3.89       0.00       0.00       0.50       3.04       0.28       3.32        1.73    30.40   0.853
  S010-039#1                 3.89       0.00       0.00       0.62       2.52       0.70       3.22        0.75    30.71   0.828
  S010-046#1                 3.89       0.00       0.00       0.35       3.09       0.38       3.47        0.92    19.35   0.891
  S010-049#1                 3.89       0.00       0.00       0.89       2.09       0.87       2.96        0.68    17.73   0.761
  S010-051#1                 3.89       0.00       0.00       0.85       2.23       0.76       2.99        1.94    34.05   0.768
  S010-056#1                 3.89       0.00       0.00       0.55       2.70       0.59       3.29        1.39    41.07   0.845
  S010-060#1                 3.89       0.00       0.00       2.08       0.40       1.40       1.81        1.40    19.90   0.464
  S010-062#1                 3.89       0.00       0.00       2.01       0.28       1.60       1.88        1.33    23.11   0.483
  S010-065#1                 3.89       0.00       0.00       0.27       3.27       0.27       3.54        2.62    28.41   0.908
  S010-073#1                 3.89       0.00       0.00       2.03       0.87       0.97       1.84       27.97   204.88   0.473
  S010-816#1                 3.89       0.00       0.00       1.27       1.78       0.80       2.59        0.60    26.43   0.664
  S011-005#1                 3.89       0.00       0.00       2.43       0.39       1.06       1.45       16.82   129.37   0.373
  S011-027#1                 3.89       0.00       0.00       1.81       0.61       1.45       2.07        4.49    54.94   0.531
  S011-033#1                 3.89       0.00       0.00       1.87       0.92       1.08       2.00        5.21    30.79   0.513
  S026-316#1                 3.89       0.00       0.00       1.19       1.35       1.33       2.67        3.38   154.86   0.687
  S026-334#1                 3.89       0.00       0.00       1.58       0.71       1.60       2.30        5.25   186.11   0.592
  S026-812#1                 3.89       0.00       0.00       1.46       1.01       1.40       2.41       13.60   410.56   0.620
  S027-023#1                 3.89       0.00       0.00       1.17       1.86       0.83       2.69        0.55    27.16   0.690
  S027-031#1                 3.89       0.00       0.00       0.99       2.09       0.77       2.86        0.09     4.42   0.735
  S027-033#1                 3.89       0.00       0.00       1.10       2.01       0.74       2.76        1.61    73.99   0.708
  S027-048#1                 3.89       0.00       0.00       1.01       2.14       0.70       2.84        0.61    28.20   0.730
  S027-054#1                 3.89       0.00       0.00       0.80       2.49       0.55       3.04        1.62    68.01   0.781
  S027-066#1                 3.89       0.00       0.00       1.66       1.17       1.05       2.21        1.48    72.45   0.569
  S027-075#1                 3.89       0.00       0.00       1.49       1.33       1.05       2.38        0.39    21.00   0.610
  S027-077#1                 3.89       0.00       0.00       1.34       1.67       0.85       2.52        2.16    97.97   0.647
  S027-086#1                 3.89       0.00       0.00       1.36       0.96       1.56       2.52        0.34    18.03   0.646
  S027-092#1                 3.89       0.00       0.00       1.68       0.40       1.80       2.21        2.09    92.55   0.567
  S027-129#1                 3.89       0.00       0.00       1.60       1.34       0.92       2.26        1.82    76.78   0.581
  S027-247#1                 3.89       0.00       0.00       1.31       1.65       0.90       2.55        1.23    61.46   0.654
  S027-251#1                 3.89       0.00       0.00       1.25       1.72       0.89       2.60        0.65    33.23   0.669
  S027-271#1                 3.89       0.00       0.00       1.78       0.88       1.22       2.10        0.71    41.14   0.540
  S027-287#1                 3.89       0.00       0.00       1.34       1.13       1.40       2.53        5.74   220.52   0.649
  S027-309#1                 3.89       0.00       0.00       0.98       1.74       1.14       2.88        0.74    36.48   0.741
  S027-359#1                 3.89       0.00       0.00       1.84       0.68       1.37       2.04        0.55    35.76   0.525
  S027-442#1                 3.89       0.00       0.00       1.13       1.86       0.86       2.72        0.50    25.74   0.700
  S027-805#1                 3.89       0.00       0.00       1.21       1.41       1.25       2.66        1.26    46.70   0.683
  S027-831#1                 3.89       0.00       0.00       1.22       1.82       0.82       2.63        0.57    26.87   0.676
  S027-836#1                 3.89       0.00       0.00       1.17       1.74       0.95       2.69        0.03     1.35   0.691
  S027-837#1                 3.89       0.00       0.00       1.18       1.70       0.98       2.68        0.02     1.11   0.688
  S027-840#1                 3.89       0.00       0.00       1.04       1.95       0.87       2.82        0.02     1.10   0.724
  S027-843#1                 3.89       0.00       0.00       1.32       1.50       1.05       2.54        0.03     1.95   0.654
  S027-861#1                 3.89       0.00       0.00       1.49       0.77       1.61       2.39        1.57    69.80   0.613
  S027-867#1                 3.89       0.00       0.00       1.53       0.64       1.72       2.35        1.06    54.31   0.605
  S027-875#1                 3.89       0.00       0.00       1.56       1.24       1.07       2.31        0.43    23.25   0.593
  S028-034#1                 3.89       0.00       0.00       0.20       3.37       0.25       3.62        0.88    34.43   0.930
  S028-059#1                 3.89       0.00       0.00       0.50       2.73       0.61       3.34        0.09     4.05   0.858
  S028-065#1                 3.89       0.00       0.00       0.45       2.86       0.52       3.38        1.62    57.44   0.868
  S028-081#1                 3.89       0.00       0.00       1.08       1.68       1.10       2.78        4.34   144.83   0.714
  S028-090#1                 3.89       0.00       0.00       0.73       2.25       0.87       3.11        0.36    16.71   0.800
  S028-096#1                 3.89       0.00       0.00       0.12       3.55       0.15       3.70        0.30    11.81   0.951
  S028-101#1                 3.89       0.00       0.00       0.20       3.38       0.24       3.62        1.15    44.38   0.931
  S028-105#1                 3.89       0.00       0.00       0.33       3.12       0.39       3.50        0.65    25.59   0.900
  S028-118#1                 3.89       0.00       0.00       0.18       3.42       0.23       3.64        0.12     4.91   0.936
  S028-155#1                 3.89       0.00       0.00       0.91       1.89       1.06       2.95        0.46    21.73   0.757
  S028-204#1                 3.89       0.00       0.00       1.19       1.91       0.76       2.67        0.46    19.91   0.685
  S028-206#1                 3.89       0.00       0.00       1.30       1.16       1.41       2.57        0.08     3.30   0.660
  S028-218#1                 3.89       0.00       0.00       1.56       1.26       1.04       2.30        0.57    29.47   0.592
  S028-223#1                 3.89       0.00       0.00       1.18       1.83       0.85       2.68        0.51    25.80   0.688
  S028-224#1                 3.89       0.00       0.00       1.62       1.03       1.22       2.25        0.27    16.23   0.578
  S028-241#1                 3.89       0.00       0.00       0.98       2.22       0.65       2.87        1.97    84.33   0.736
  S028-246#1                 3.89       0.00       0.00       1.26       1.21       1.40       2.61        0.99    46.92   0.671
  S028-256#1                 3.89       0.00       0.00       1.46       0.81       1.61       2.42        3.27   154.05   0.621
  S028-291#1                 3.89       0.00       0.00       0.52       2.71       0.61       3.32        1.14    46.88   0.852
  S028-293#1                 3.89       0.00       0.00       0.86       1.96       1.02       2.99        0.97    46.82   0.768
  S028-499#1                 3.89       0.00       0.00       0.93       1.83       1.10       2.92        0.43    21.23   0.751
  S028-856#1                 3.89       0.00       0.00       1.15       1.37       1.35       2.72        0.35    18.08   0.699
  S028-948#1                 3.89       0.00       0.00       0.96       1.83       1.07       2.90        1.73    75.10   0.744
  S028-954#1                 3.89       0.00       0.00       0.12       3.55       0.15       3.70        0.32    12.72   0.951
  S028-961#1                 3.89       0.00       0.00       1.45       1.28       1.14       2.42        0.99    17.74   0.621
  S031-069#1                 3.89       0.00       0.00       0.23       3.32       0.28       3.60        0.78    31.42   0.925
  S031-075#1                 3.89       0.00       0.00       0.21       3.36       0.26       3.62        0.11     4.36   0.930
  S031-085#1                 3.89       0.00       0.00       0.18       3.42       0.22       3.64        0.86    32.95   0.936
  S031-086#1                 3.89       0.00       0.00       0.22       3.33       0.28       3.61        0.25    10.22   0.926
  S031-087#1                 3.89       0.00       0.00       0.23       3.32       0.28       3.60        0.81    32.70   0.925
  S031-219#1                 3.89       0.00       0.00       0.29       3.19       0.36       3.54        0.55    23.03   0.909
  S031-236#1                 3.89       0.00       0.00       0.22       3.33       0.27       3.60        0.44    17.74   0.926
  S031-247#1                 3.89       0.00       0.00       0.30       3.16       0.37       3.53        0.61    24.99   0.906
  S031-252#1                 3.89       0.00       0.00       0.20       3.37       0.25       3.62        0.12     4.85   0.931
  S031-265#1                 3.89       0.00       0.00       0.23       3.31       0.28       3.60        0.56    22.21   0.923
  S031-276#1                 3.89       0.00       0.00       0.53       2.65       0.65       3.31        0.36    15.86   0.849
  S031-294#1                 3.89       0.00       0.00       0.43       2.89       0.51       3.40        1.01    42.18   0.875
  S031-475#1                 3.89       0.00       0.00       1.02       1.62       1.23       2.84        0.11     5.60   0.731
  S031-479#1                 3.89       0.00       0.00       0.34       3.08       0.42       3.49        0.16     6.63   0.898
  S031-482#1                 3.89       0.00       0.00       0.56       2.61       0.68       3.29        0.23    10.44   0.844
  S031-484#1                 3.89       0.00       0.00       1.13       1.37       1.37       2.74        0.18     9.85   0.704
  S031-485#1                 3.89       0.00       0.00       0.50       2.74       0.61       3.34        0.24    10.81   0.859
  S031-489#1                 3.89       0.00       0.00       0.68       2.33       0.83       3.16        0.30    14.08   0.813
  S031-493#1                 3.89       0.00       0.00       0.32       3.11       0.40       3.51        0.10     4.02   0.902
  S031-495#1                 3.89       0.00       0.00       0.81       2.09       0.95       3.04        0.70    32.75   0.781
  S031-505#1                 3.89       0.00       0.00       1.02       1.70       1.14       2.84        0.58    25.58   0.729
  S031-507#1                 3.89       0.00       0.00       0.88       2.27       0.69       2.96        0.27    12.98   0.761
  S031-512#1                 3.89       0.00       0.00       0.95       1.80       1.11       2.91        0.27    13.34   0.748
  S031-529#1                 3.89       0.00       0.00       0.91       2.27       0.67       2.94        0.31    14.76   0.756
  S031-536#1                 3.89       0.00       0.00       0.45       2.85       0.54       3.39        0.47    20.45   0.871
  S031-545#1                 3.89       0.00       0.00       0.44       2.86       0.53       3.39        0.87    35.89   0.871
  S031-709#1                 3.89       0.00       0.00       0.47       2.81       0.56       3.37        0.82    35.31   0.866
  S031-767#1                 3.89       0.00       0.00       0.53       2.67       0.64       3.31        0.44    19.24   0.849
  S031-772#1                 3.89       0.00       0.00       0.34       3.08       0.41       3.49        0.80    32.19   0.896
  S031-774#1                 3.89       0.00       0.00       0.38       2.99       0.46       3.45        0.80    33.79   0.886
  S031-776#1                 3.89       0.00       0.00       0.42       2.91       0.50       3.41        0.43    17.61   0.876
  S031-880#1                 3.89       0.00       0.00       0.52       2.68       0.64       3.32        0.05     2.35   0.853
  S031-908#1                 3.89       0.00       0.00       0.16       3.45       0.21       3.66        0.10     3.96   0.940
  S031-910#1                 3.89       0.00       0.00       0.11       3.57       0.14       3.71        0.02     0.82   0.953
  S031-915#1                 3.89       0.00       0.00       0.77       2.14       0.94       3.08        0.13     6.35   0.792
  S031-971#1                 3.89       0.00       0.00       0.28       3.22       0.33       3.55        1.07    42.02   0.912
  S032-129#1                 3.89       0.00       0.00       0.94       2.23       0.67       2.90        0.81    37.64   0.746
  S032-137#1                 3.89       0.00       0.00       0.79       2.46       0.59       3.05        0.56    25.96   0.783
  S032-142#1                 3.89       0.00       0.00       0.86       2.41       0.57       2.99        1.25    50.77   0.767
  S032-291#1                 3.89       0.00       0.00       0.87       2.36       0.62       2.98        0.42    19.41   0.765
  S032-293#1                 3.89       0.00       0.00       1.27       1.66       0.93       2.59        0.12     6.50   0.664
  S032-295#1                 3.89       0.00       0.00       1.01       2.19       0.65       2.84        0.20     8.02   0.729
  S032-308#1                 3.89       0.00       0.00       1.63       1.24       1.00       2.24        0.51    23.94   0.574
  S032-310#1                 3.89       0.00       0.00       1.69       1.35       0.83       2.18        0.25     8.49   0.560
  
  
  ******************
  Node Depth Summary
  ******************
  
  ---------------------------------------------------------------------------------
                                 Average  Maximum  Maximum  Time of Max    Reported
                                   Depth    Depth      HGL   Occurrence   Max Depth
  Node                 Type         Feet     Feet     Feet  days hr:min        Feet
  ---------------------------------------------------------------------------------
  N1                   JUNCTION     0.48     0.48   804.48     1  03:17        0.48
  N10                  JUNCTION     0.00     0.00   805.15     0  00:00        0.00
  N11                  JUNCTION     0.00     0.00   804.55     0  00:00        0.00
  N12                  JUNCTION     0.00     0.00   801.00     0  00:00        0.00
  N13                  JUNCTION     0.00     0.00   796.50     0  00:00        0.00
  N14                  JUNCTION     0.00     0.00   779.50     0  00:00        0.00
  N15                  JUNCTION     0.00     0.00   778.55     0  00:00        0.00
  N2                   JUNCTION     0.80     0.80   803.40     0  07:43        0.80
  N3                   JUNCTION     0.57     0.57   799.57     0  03:44        0.57
  N4                   JUNCTION     0.53     0.53   795.53     0  11:26        0.53
  N5                   JUNCTION     0.46     0.46   784.16     1  03:18        0.46
  N6                   JUNCTION     0.00     0.00   814.00     0  00:00        0.00
  N7                   JUNCTION     0.00     0.00   812.55     0  00:00        0.00
  N8                   JUNCTION     0.00     0.00   809.30     0  00:00        0.00
  N9                   JUNCTION     0.00     0.00   807.00     0  00:00        0.00
  NEIDPS_SG            JUNCTION    14.27    17.03   726.63     1  03:15       16.97
  S005-005             JUNCTION     6.50     6.50   734.00     0  00:00        6.50
  S005-006             JUNCTION     7.50     8.32   735.32     0  00:00        7.53
  S005-007             JUNCTION     8.00     9.40   735.92     0  00:00        8.04
  S005-008             JUNCTION     8.30     8.30   734.00     0  00:01        8.30
  S005-009             JUNCTION     9.00     9.00   734.00     0  00:01        9.00
  S005-835             JUNCTION    10.63    12.00   735.99     0  00:01       10.67
  S006-001             JUNCTION     7.99    13.23   736.00     0  00:18       13.23
  S006-003             JUNCTION     8.66    14.95   737.04     0  00:18       13.87
  S006-006             JUNCTION     8.55    14.01   736.20     0  00:18       13.67
  S006-008             JUNCTION     8.98    13.22   734.95     0  00:18       13.22
  S006-011             JUNCTION     9.24    14.45   735.89     0  00:18       13.50
  S006-013             JUNCTION     8.87    12.36   734.04     1  03:14       12.36
  S006-014             JUNCTION     9.04    12.48   733.98     1  03:14       12.44
  S006-015             JUNCTION     8.91    11.95   733.90     1  03:14       11.92
  S006-016             JUNCTION     9.42    12.41   733.67     1  03:13       12.37
  S006-017             JUNCTION     9.62    12.50   733.33     1  03:08       12.50
  S006-018             JUNCTION     8.96    12.25   734.19     1  03:13       12.21
  S006-018TA           JUNCTION     9.25    12.74   734.44     1  03:13       12.73
  S006-019             JUNCTION     6.38     7.64   728.22     1  03:15        7.64
  S006-019TA           JUNCTION     6.61     7.90   728.43     1  03:15        7.90
  S006-020             JUNCTION     8.63    12.34   734.69     1  03:14       12.31
  S006-021             JUNCTION     9.55    14.58   737.42     1  03:15       14.54
  S006-022             JUNCTION     7.21    11.40   737.34     0  13:10       11.40
  S006-026             JUNCTION     7.24    10.39   734.29     1  03:12       10.37
  S006-027             JUNCTION     6.68     9.42   734.53     1  03:09        9.37
  S006-028             JUNCTION     6.32     8.62   734.40     0  13:07        8.62
  S006-031             JUNCTION     9.60    12.85   734.83     1  03:14       12.84
  S006-032             JUNCTION     6.72    10.07   735.59     1  03:14       10.06
  S006-033             JUNCTION     6.19     9.63   736.00     1  03:15        9.62
  S006-034             JUNCTION     5.31     7.25   735.31     0  13:08        7.25
  S006-035             JUNCTION     4.95     7.50   736.78     1  03:08        7.50
  S006-037             JUNCTION     3.36     4.15   735.41     0  12:12        4.15
  S006-038             JUNCTION     4.70     8.35   737.71     1  03:10        8.35
  S006-039             JUNCTION     5.25     7.99   736.66     0  13:06        7.99
  S006-040             JUNCTION     5.89     9.05   736.24     1  03:02        8.86
  S006-041             JUNCTION     6.34     9.71   736.24     1  03:02        9.45
  S006-042             JUNCTION     6.74    10.04   735.95     1  03:02        9.93
  S006-044             JUNCTION     4.25     7.00   736.00     0  13:10        7.00
  S006-046             JUNCTION     6.45     9.83   736.10     1  03:02        9.65
  S006-047             JUNCTION    18.82    18.83   736.14     0  00:01       18.83
  S006-048             JUNCTION    19.14    19.85   737.29     0  00:01       19.18
  S006-049             JUNCTION    20.11    20.12   738.08     0  00:01       20.12
  S006-050             JUNCTION    21.74    22.75   741.13     0  00:01       21.79
  S006-051             JUNCTION    21.75    22.67   741.23     0  00:01       21.81
  S006-052             JUNCTION    21.67    21.95   740.57     0  00:01       21.72
  S006-053             JUNCTION    21.26    21.50   740.49     0  00:01       21.30
  S006-054             JUNCTION    20.95    20.96   740.11     0  00:01       20.96
  S006-055             JUNCTION    16.40    19.96   739.63     0  00:01       16.80
  S006-056             JUNCTION    10.89    32.18   752.24     0  00:01       11.65
  S006-057             JUNCTION     7.28    10.63   735.49     1  03:15       10.58
  S006-058             JUNCTION    12.23    13.00   736.00     0  00:15       12.36
  S006-059             JUNCTION    12.15    12.20   735.20     0  00:15       12.20
  S006-060             JUNCTION    13.38    13.95   736.00     0  00:14       13.58
  S006-061             JUNCTION    13.53    15.45   737.53     0  00:14       13.83
  S006-062             JUNCTION    14.18    17.15   738.67     0  00:13       14.38
  S006-067             JUNCTION     5.75     5.75   735.48     0  00:01        5.75
  S006-068             JUNCTION     7.00     7.00   736.00     0  00:00        7.00
  S006-069             JUNCTION     7.80     7.80   736.00     0  00:01        7.80
  S006-070             JUNCTION     6.75     6.75   734.00     0  00:01        6.75
  S006-071             JUNCTION     9.75     9.75   736.00     0  00:01        9.75
  S006-072             JUNCTION    10.75    10.75   735.98     0  00:01       10.75
  S006-073             JUNCTION     9.75     9.75   734.00     0  00:01        9.75
  S006-075             JUNCTION    10.76    10.76   734.22     0  00:01       10.76
  S006-076             JUNCTION    12.50    12.50   735.13     0  00:01       12.50
  S006-077             JUNCTION    14.00    14.00   735.77     0  00:01       14.00
  S006-106             JUNCTION     8.42    11.67   734.22     1  03:14       11.65
  S006-127             JUNCTION     5.80    10.71   736.00     1  03:12       10.71
  S006-800             JUNCTION     5.98     7.15   727.65     1  03:15        7.14
  S006-801             JUNCTION     5.10     6.18   726.53     1  03:16        6.17
  S006-801TA           JUNCTION     6.59     7.64   727.84     1  03:16        7.63
  S006-803             JUNCTION     1.35     1.93   731.93     1  03:15        1.93
  S006-804             JUNCTION     1.83     3.10   728.37     1  03:14        3.10
  S008-024             JUNCTION     4.83     6.00   741.75     0  00:16        6.00
  S008-025             JUNCTION     9.22    11.00   742.00     0  13:04       10.71
  S008-026             JUNCTION     9.95    12.06   742.13     1  03:03       11.62
  S008-027             JUNCTION    10.28    12.50   742.00     0  13:04       12.05
  S008-029             JUNCTION     9.50    12.06   741.41     0  13:04       11.58
  S008-034             JUNCTION    20.09    23.47   743.96     0  18:45       22.65
  S008-035             JUNCTION    20.46    25.06   745.66     0  00:06       22.75
  S008-036             JUNCTION    20.62    25.10   745.85     0  00:06       22.46
  S008-037             JUNCTION    20.75    24.32   745.20     0  00:06       21.86
  S008-038             JUNCTION    20.76    20.93   742.00     0  00:06       20.93
  S008-039             JUNCTION    20.66    20.74   742.00     0  00:06       20.74
  S009-010             JUNCTION     6.25     9.45   739.56     1  03:03        9.12
  S009-011             JUNCTION    10.07    13.25   738.84     0  13:04       13.10
  S009-012             JUNCTION     8.85    12.80   738.34     1  03:15       12.78
  S009-013             JUNCTION     4.67     8.83   739.83     1  03:03        7.69
  S009-017             JUNCTION    17.93    21.00   740.72     0  16:27       20.57
  S009-017TA           JUNCTION     4.89    18.20   740.89     0  00:21       11.90
  S009-017TB           JUNCTION    16.80    20.00   739.40     0  18:45       19.23
  S009-017TC           JUNCTION     9.78    16.01   738.36     0  13:04       11.03
  S009-017TD           JUNCTION    13.40    18.03   740.38     0  10:34       14.83
  S009-018             JUNCTION     6.55    12.19   738.83     0  13:04        9.37
  S009-021             JUNCTION     9.71    12.75   738.66     1  03:15       12.72
  S009-022             JUNCTION     9.81    12.88   738.74     0  13:04       12.84
  S009-023             JUNCTION     7.65    10.67   738.99     0  13:04       10.57
  S009-024             JUNCTION     7.03     9.46   739.56     0  12:53        9.46
  S009-025             JUNCTION     6.21     9.82   741.42     1  03:14        9.78
  S009-027             JUNCTION     5.95     9.94   741.99     1  03:15        9.94
  S009-028             JUNCTION     5.98     9.92   741.92     1  03:14        9.89
  S009-032             JUNCTION     9.63    12.35   738.62     1  03:15       12.32
  S009-033             JUNCTION     6.51    13.32   740.00     0  00:10        9.40
  S009-036             JUNCTION     5.99    11.76   738.99     0  18:45        9.11
  S009-037             JUNCTION     9.03    13.68   740.81     0  00:10       11.27
  S009-047             JUNCTION     8.86    11.07   738.63     0  00:10       10.56
  S009-049             JUNCTION     5.63    11.78   739.39     0  18:45        9.04
  S009-063             JUNCTION     4.73     9.40   737.94     0  00:14        8.80
  S009-064             JUNCTION     4.61     9.00   737.73     0  00:14        9.00
  S009-069             JUNCTION     8.51     8.53   736.62     0  00:10        8.53
  S009-070             JUNCTION     8.68     9.77   737.73     1  03:08        9.77
  S009-071             JUNCTION     8.71     9.40   737.62     0  00:10        9.40
  S009-072             JUNCTION     9.00     9.76   739.04     0  00:10        9.40
  S009-073             JUNCTION     9.06     9.45   739.56     0  00:10        9.22
  S009-074             JUNCTION     8.69     8.70   739.53     0  00:10        8.70
  S009-075             JUNCTION     8.99     9.21   740.37     1  03:16        9.19
  S009-076             JUNCTION     9.02     9.36   740.85     1  03:15        9.35
  S009-078             JUNCTION     9.89     9.90   745.43     0  00:02        9.90
  S009-079             JUNCTION     9.85     9.88   746.00     0  00:03        9.88
  S009-080             JUNCTION     9.06     9.07   746.00     0  00:03        9.07
  S009-081             JUNCTION     8.28     8.29   746.00     0  00:03        8.29
  S009-082             JUNCTION     7.86     8.83   738.16     0  00:05        7.91
  S009-083             JUNCTION     7.53     8.91   739.05     0  00:05        7.59
  S009-085             JUNCTION     6.67     7.17   738.18     0  00:05        6.71
  S009-086             JUNCTION     5.36     5.37   737.34     0  00:05        5.37
  S009-113             JUNCTION     3.96     8.85   739.80     1  03:02        8.76
  S009-114             JUNCTION     5.46    10.51   739.56     1  03:14       10.48
  S009-115             JUNCTION     6.08    11.00   739.38     0  13:10       11.00
  S009-116             JUNCTION     6.68    11.72   739.30     1  03:14       11.69
  S009-118             JUNCTION    22.96    23.02   740.15     0  00:09       23.02
  S009-119             JUNCTION    23.68    25.70   742.80     0  00:09       24.35
  S009-120             JUNCTION    23.43    24.64   742.33     0  00:09       24.64
  S009-121             JUNCTION    23.18    24.03   742.00     0  00:09       24.03
  S009-122             JUNCTION    23.26    23.85   741.71     0  00:09       23.85
  S009-128             JUNCTION    22.93    24.00   742.00     0  00:09       23.46
  S009-129             JUNCTION    21.59    22.20   740.71     0  00:08       21.93
  S009-130             JUNCTION    20.00    20.05   738.47     0  00:08       20.05
  S009-131             JUNCTION    19.23    20.20   739.37     0  00:09       19.57
  S009-132             JUNCTION    18.71    20.57   739.94     0  18:45       19.70
  S009-133             JUNCTION    18.30    20.05   739.01     0  04:18       20.05
  S009-134             JUNCTION    18.07    21.93   742.00     0  18:45       20.84
  S009-135             JUNCTION    19.50    23.51   743.70     0  18:45       22.26
  S009-800             JUNCTION    16.87    19.85   739.70     0  18:45       19.00
  S009-801             JUNCTION     2.98     7.70   739.71     0  12:54        7.70
  S009-821             JUNCTION    10.00    14.35   737.52     0  16:26       12.79
  S010-002             JUNCTION     3.05     5.27   724.01     1  03:08        4.92
  S010-004             JUNCTION     2.39    14.50   742.56     1  03:07       10.38
  S010-005             JUNCTION     2.05    12.98   741.79     1  03:07       10.64
  S010-006             JUNCTION     2.54    12.44   741.32     0  13:11       11.58
  S010-007             JUNCTION     2.30    12.10   741.63     0  13:11       12.10
  S010-022             JUNCTION     5.02     5.15   734.30     0  13:01        5.15
  S010-023             JUNCTION     6.12     6.48   734.14     1  03:09        6.47
  S010-024             JUNCTION     5.44     6.04   734.43     1  03:08        6.02
  S010-025             JUNCTION     4.71     6.72   735.97     1  03:08        6.72
  S010-029             JUNCTION     6.61     6.64   733.62     0  00:41        6.64
  S010-030             JUNCTION     6.63     7.76   734.57     1  03:14        7.72
  S010-031             JUNCTION     7.32     9.27   735.21     1  03:14        9.23
  S010-032             JUNCTION     8.90    11.64   735.67     1  03:14       11.62
  S010-033             JUNCTION     7.18    10.22   735.67     1  03:14       10.19
  S010-034             JUNCTION     8.10    11.26   735.49     1  03:14       11.25
  S010-035             JUNCTION     7.50    10.67   735.60     1  03:14       10.64
  S010-036             JUNCTION     7.00    10.15   735.65     1  03:12       10.15
  S010-039             JUNCTION     7.41    10.52   735.50     1  03:02        9.92
  S010-040             JUNCTION     6.20     8.70   735.18     1  03:02        8.66
  S010-041             JUNCTION     4.90     8.45   736.71     1  03:03        7.34
  S010-042             JUNCTION     4.06     6.90   737.00     1  03:03        6.03
  S010-043             JUNCTION     3.67     5.40   736.18     0  12:50        5.40
  S010-044             JUNCTION     3.68     5.50   736.75     1  03:03        5.50
  S010-045             JUNCTION     4.19     6.32   737.82     1  03:15        6.30
  S010-046             JUNCTION     4.52     7.00   738.80     1  03:14        6.99
  S010-047             JUNCTION     5.97     8.15   740.48     0  00:02        7.26
  S010-048             JUNCTION     5.52     7.20   740.36     0  00:03        6.54
  S010-049             JUNCTION     6.09     6.95   739.77     0  00:01        6.86
  S010-050             JUNCTION     4.61     4.63   738.95     0  00:03        4.63
  S010-051             JUNCTION     4.05     4.05   738.90     0  00:04        4.05
  S010-055             JUNCTION    22.65    22.76   735.80     0  00:15       22.76
  S010-056             JUNCTION    22.57    22.65   735.81     0  00:15       22.65
  S010-057             JUNCTION    22.93    23.10   736.95     0  00:14       23.10
  S010-058             JUNCTION    22.10    22.85   738.22     0  00:10       22.37
  S010-059             JUNCTION    22.39    22.72   738.00     0  00:09       22.72
  S010-060             JUNCTION    21.75    24.43   740.46     0  00:09       22.64
  S010-061             JUNCTION    22.44    25.69   741.98     0  00:09       23.25
  S010-062             JUNCTION    23.26    25.26   741.30     0  00:09       23.98
  S010-063             JUNCTION    22.60    22.66   739.50     0  00:09       22.66
  S010-065             JUNCTION    20.21    20.23   737.13     0  00:02       20.23
  S010-066             JUNCTION    21.08    21.39   738.00     0  00:02       21.23
  S010-067             JUNCTION    22.00    22.42   738.13     0  00:02       22.20
  S010-068             JUNCTION    19.44    23.58   740.71     0  00:02       19.88
  S010-069             JUNCTION    17.49    17.51   734.95     0  00:02       17.51
  S010-070             JUNCTION    18.48    19.28   736.99     0  00:03       18.53
  S010-071             JUNCTION    19.00    19.02   736.91     0  00:02       19.02
  S010-072             JUNCTION    21.25    23.15   741.12     0  00:02       22.14
  S010-073             JUNCTION    20.95    22.50   742.00     0  00:02       22.50
  S010-076             JUNCTION    21.54    21.79   735.99     0  00:15       21.65
  S010-077             JUNCTION    15.13    15.30   735.92     0  00:11       15.30
  S010-078             JUNCTION    14.78    16.30   737.26     0  00:12       14.98
  S010-079             JUNCTION    15.25    15.25   736.00     0  00:01       15.25
  S010-080             JUNCTION    17.64    18.75   738.00     0  00:01       17.68
  S010-081             JUNCTION    17.98    18.00   736.46     0  00:01       18.00
  S010-082             JUNCTION    17.95    18.00   735.95     0  00:10       18.00
  S010-082TA           JUNCTION    22.71    22.85   735.75     0  19:26       22.82
  S010-083             JUNCTION    15.69    15.70   736.00     0  00:01       15.70
  S010-804             JUNCTION    19.21    21.00   742.00     0  00:02       20.56
  S010-805             JUNCTION    21.45    23.24   742.00     0  00:02       22.80
  S010-806             JUNCTION    22.80    23.28   736.00     0  00:10       22.92
  S010-812             JUNCTION     8.17    10.40   735.40     1  03:14       10.37
  S010-816             JUNCTION     4.14     9.04   738.50     1  03:03        6.60
  S011-001             JUNCTION     5.14     7.93   728.08     1  03:14        7.85
  S011-002             JUNCTION     4.76     8.41   729.34     1  03:15        8.40
  S011-003             JUNCTION     4.97     9.45   730.53     1  03:15        9.42
  S011-004             JUNCTION     4.69     9.62   731.19     1  03:15        9.60
  S011-005             JUNCTION     4.74    10.25   732.05     0  13:09       10.25
  S011-006             JUNCTION     4.35    11.91   734.11     1  03:06       10.14
  S011-007             JUNCTION     3.88    12.65   735.33     1  03:06        9.81
  S011-008             JUNCTION     3.30    13.95   737.25     1  03:07        9.34
  S011-009             JUNCTION     3.16    14.75   738.25     1  03:07        9.40
  S011-010             JUNCTION     3.27    12.06   735.76     0  13:10        9.52
  S011-011             JUNCTION     2.88    12.06   736.37     0  13:10        9.05
  S011-012             JUNCTION     2.85    11.58   736.42     0  13:10        8.83
  S011-013             JUNCTION     2.28    10.91   736.65     0  13:10        8.24
  S011-014             JUNCTION     3.86    16.52   740.72     0  13:09       10.08
  S011-015             JUNCTION     4.46    17.36   741.38     1  03:12       10.58
  S011-016             JUNCTION     4.12    10.53   735.13     0  13:10       10.26
  S011-017             JUNCTION     3.21    10.52   736.42     0  13:11        9.60
  S011-018             JUNCTION     3.26     9.72   735.65     0  13:11        9.72
  S011-019             JUNCTION     2.88     9.77   736.45     1  03:12        9.66
  S011-020             JUNCTION     2.57     9.62   736.74     0  13:11        9.62
  S011-021             JUNCTION     2.19    10.30   738.01     0  13:11        9.69
  S011-025             JUNCTION    16.41    19.29   728.57     1  03:15       19.23
  S011-026             JUNCTION    17.29    20.41   729.94     1  03:14       20.40
  S011-027             JUNCTION    18.24    21.63   731.23     1  03:15       21.62
  S011-028             JUNCTION    18.44    21.47   731.27     1  03:14       21.39
  S011-029             JUNCTION    19.16    21.31   731.31     1  03:15       21.31
  S011-031             JUNCTION    20.38    21.84   732.15     1  03:15       21.83
  S011-032             JUNCTION    21.33    23.28   733.75     0  00:15       22.44
  S011-033             JUNCTION    21.56    22.82   733.84     0  00:15       22.37
  S011-034             JUNCTION    21.46    22.82   734.35     0  00:15       21.84
  S011-035             JUNCTION    21.45    21.54   733.30     0  00:15       21.54
  S011-036             JUNCTION    22.50    23.27   735.10     0  00:15       22.63
  S011-037             JUNCTION    22.59    23.60   736.00     0  00:11       22.71
  S011-043             JUNCTION    12.33    13.60   735.19     0  00:15       12.41
  S011-043TA           JUNCTION    21.68    22.41   734.38     0  00:15       21.80
  S011-044             JUNCTION    11.49    11.50   734.00     0  00:01       11.50
  S011-045             JUNCTION    11.00    11.00   734.10     0  00:01       11.00
  S011-046             JUNCTION    11.00    11.00   734.62     0  00:01       11.00
  S011-047             JUNCTION    21.54    22.49   733.33     0  00:15       22.44
  S011-060             JUNCTION    19.59    21.35   731.31     0  13:23       21.35
  S011-061             JUNCTION     9.98    10.00   726.01     0  00:15       10.00
  S011-062             JUNCTION    11.85    13.95   730.90     0  00:02       11.91
  S011-063             JUNCTION    13.19    13.50   730.84     0  00:15       13.25
  S011-064             JUNCTION    11.17    12.00   732.00     0  00:03       11.22
  S011-065             JUNCTION     8.99     9.00   731.22     0  00:04        9.00
  S011-085             JUNCTION    21.19    23.09   733.73     0  00:15       22.26
  S011-092             JUNCTION    10.99    11.00   734.42     0  00:15       11.00
  S011-093             JUNCTION    10.00    10.00   734.00     0  00:00       10.00
  S011-094             JUNCTION     9.75     9.75   734.00     0  00:00        9.75
  S011-095             JUNCTION    11.00    11.00   735.50     0  00:00       11.00
  S011-096             JUNCTION     9.00     9.00   734.00     0  00:00        9.00
  S012-001             JUNCTION     3.79     5.10   722.89     1  03:08        5.07
  S012-003             JUNCTION     3.47     5.70   724.78     1  03:14        5.67
  S012-004             JUNCTION     3.50     5.91   725.41     1  03:15        5.91
  S012-010             JUNCTION    16.24    19.03   728.03     1  03:15       18.99
  S012-DS1             JUNCTION     5.32     7.95   727.84     1  03:15        7.95
  S012-DS1C            JUNCTION     3.12     5.78   725.78     1  03:15        5.78
  S026-308             JUNCTION     3.95    12.88   747.96     1  03:04       11.97
  S026-309             JUNCTION     4.12    11.21   746.00     1  03:04       10.92
  S026-311             JUNCTION     4.41     9.68   744.03     0  13:00        9.68
  S026-315             JUNCTION     4.41     8.70   742.72     1  03:14        8.65
  S026-315TA           JUNCTION     4.35     8.50   742.61     0  12:53        8.50
  S026-316             JUNCTION     5.15     9.94   743.14     1  03:15        9.94
  S026-329             JUNCTION     8.53     8.54   743.45     0  00:02        8.54
  S026-330             JUNCTION     8.19     8.20   742.31     0  00:02        8.20
  S026-331             JUNCTION     8.02     8.03   741.60     0  00:02        8.03
  S026-332             JUNCTION     8.66     8.82   741.76     0  00:03        8.82
  S026-334             JUNCTION     8.83     9.42   741.80     0  12:47        9.42
  S026-813             JUNCTION     2.32    11.00   749.94     0  13:38       11.00
  S026-814             JUNCTION     2.48    11.00   749.03     0  13:35       11.00
  S027-023             JUNCTION     1.56     2.57   814.17     1  03:15        2.57
  S027-024             JUNCTION     1.67     2.70   811.70     1  03:15        2.70
  S027-025             JUNCTION     1.51     2.15   807.55     1  03:15        2.14
  S027-026             JUNCTION     1.52     1.73   814.27     1  03:15        1.73
  S027-027             JUNCTION     1.40     1.60   818.58     1  03:15        1.60
  S027-029             JUNCTION     1.30     1.51   823.46     1  03:15        1.51
  S027-031             JUNCTION     1.18     1.39   843.69     1  03:15        1.39
  S027-033             JUNCTION     1.59    27.44   895.22     1  03:15       27.38
  S027-048             JUNCTION     1.28     2.49   895.39     1  03:15        2.48
  S027-049             JUNCTION     1.28    18.36   883.43     1  03:15       18.32
  S027-050             JUNCTION     1.97    21.66   882.73     1  03:14       21.62
  S027-051             JUNCTION     2.06    27.66   892.73     1  03:15       27.65
  S027-052             JUNCTION     1.49    30.23   896.53     1  03:15       30.23
  S027-053             JUNCTION     1.33    11.80   910.98     1  03:15       11.77
  S027-054             JUNCTION     1.26    16.30   924.92     1  03:13       16.30
  S027-056             JUNCTION     1.78     3.44   848.74     1  03:15        3.44
  S027-057             JUNCTION     1.84    33.25   857.01     1  03:18        6.59
  S027-059             JUNCTION     1.90     3.91   820.61     1  03:17        3.42
  S027-066             JUNCTION     2.04    16.81   818.11     1  03:18       13.14
  S027-067             JUNCTION     2.14    11.89   806.81     1  03:18       10.46
  S027-075             JUNCTION     3.38     6.80   797.50     1  03:15        6.55
  S027-076             JUNCTION     2.16    18.75   790.88     1  03:14       11.18
  S027-077             JUNCTION     5.45    16.15   766.85     1  03:08       16.15
  S027-077A            JUNCTION     2.00     3.73   754.43     1  03:08        3.73
  S027-079             JUNCTION    10.52    15.39   757.75     0  00:01       11.19
  S027-080             JUNCTION     8.52    11.00   755.28     0  00:01        9.15
  S027-081             JUNCTION    11.35    15.31   756.74     0  00:01       12.00
  S027-086             JUNCTION     8.36    12.18   745.86     1  03:14       12.16
  S027-087             JUNCTION     8.10    11.86   745.95     1  03:14       11.83
  S027-089             JUNCTION    12.85    14.06   751.06     0  00:00       12.96
  S027-090             JUNCTION    12.75    12.75   749.95     0  00:01       12.75
  S027-091             JUNCTION    11.97    11.97   750.18     0  00:01       11.97
  S027-092             JUNCTION     2.57    21.00   783.61     1  03:10       21.00
  S027-093             JUNCTION     8.05    25.63   801.62     1  03:11       24.79
  S027-094             JUNCTION     2.33     6.44   812.75     1  03:11        5.65
  S027-095             JUNCTION    18.75    20.42   827.33     0  00:00       20.19
  S027-096             JUNCTION    19.50    25.72   849.53     0  00:00       19.86
  S027-097             JUNCTION    17.75    17.75   848.30     0  00:00       17.75
  S027-098             JUNCTION     2.54    17.66   909.30     1  03:05       10.49
  S027-099             JUNCTION     2.86    19.72   923.72     1  03:05       16.76
  S027-100             JUNCTION     2.25    16.42   929.07     1  03:05       14.92
  S027-129             JUNCTION     1.87    13.71   934.01     0  13:26       13.71
  S027-247             JUNCTION     2.37    18.01   929.30     1  03:05       18.01
  S027-248             JUNCTION     1.89    14.59   933.49     1  03:05       13.84
  S027-249             JUNCTION     1.96    14.39   936.30     1  03:05       13.62
  S027-251             JUNCTION     1.70    13.48   938.30     1  03:05       13.48
  S027-271             JUNCTION     1.54    15.02   949.32     1  03:12       14.54
  S027-273             JUNCTION     1.99    11.92   931.24     1  03:14       11.89
  S027-274             JUNCTION     2.67    12.87   933.30     1  03:12       12.87
  S027-275             JUNCTION     2.24    12.48   908.80     1  03:12       11.49
  S027-276             JUNCTION     3.81    17.39   888.70     1  03:20       15.49
  S027-277             JUNCTION     2.45    10.80   871.10     1  03:15       10.78
  S027-278             JUNCTION     2.52     7.46   830.30     1  03:09        7.46
  S027-279             JUNCTION     2.60    12.18   807.30     1  03:08       10.13
  S027-280             JUNCTION     2.64    11.80   777.30     1  03:08        9.92
  S027-281             JUNCTION    10.03    10.03   745.30     0  00:01       10.03
  S027-282             JUNCTION     6.00     8.00   746.66     0  00:01        6.37
  S027-283             JUNCTION     8.40     9.43   744.45     0  14:07        9.41
  S027-284             JUNCTION     7.55     9.05   743.88     0  13:57        9.02
  S027-286             JUNCTION     9.37    11.57   742.80     0  13:02       11.57
  S027-287             JUNCTION     9.53    12.14   742.80     0  13:22       12.14
  S027-294             JUNCTION     9.91    13.02   742.58     1  03:14       13.01
  S027-295             JUNCTION    10.13    13.95   742.76     1  03:15       13.95
  S027-296             JUNCTION     9.75    13.57   744.16     1  03:15       13.55
  S027-297             JUNCTION     9.11    12.92   744.39     1  03:14       12.92
  S027-304             JUNCTION    10.80    14.73   740.15     1  03:14       14.70
  S027-306             JUNCTION     5.86     7.39   731.89     1  03:15        7.39
  S027-308             JUNCTION    11.65    15.54   741.54     1  03:15       15.54
  S027-309             JUNCTION    10.06    13.88   742.10     1  03:14       13.87
  S027-359             JUNCTION     1.73     9.66   921.39     0  13:03        9.66
  S027-426             JUNCTION    20.51    20.55   742.00     0  00:05       20.55
  S027-427             JUNCTION    20.33    20.36   742.00     0  00:05       20.36
  S027-428             JUNCTION    20.64    21.61   743.44     0  00:04       21.54
  S027-429             JUNCTION    20.77    22.32   744.29     1  03:15       22.27
  S027-430             JUNCTION    20.78    22.52   744.55     1  03:15       22.48
  S027-431             JUNCTION    20.75    22.82   744.95     1  03:15       22.78
  S027-432             JUNCTION    20.66    23.00   745.25     1  03:15       22.97
  S027-433             JUNCTION    20.42    23.01   745.61     1  03:14       22.97
  S027-434             JUNCTION    20.31    24.78   747.69     0  00:04       23.59
  S027-435             JUNCTION     3.75    13.65   765.77     1  03:09       13.62
  S027-436             JUNCTION     1.52     2.13   884.63     1  03:14        2.12
  S027-436A            JUNCTION     3.33    10.73   762.45     1  03:19       10.68
  S027-437             JUNCTION     1.47     1.96   878.98     1  03:14        1.96
  S027-438             JUNCTION     2.03     7.94   874.70     1  03:14        7.89
  S027-439             JUNCTION     1.74     3.41   869.30     1  03:10        3.40
  S027-440             JUNCTION     1.45     2.57   864.89     1  03:16        2.33
  S027-442             JUNCTION     1.98    10.00   848.44     1  03:11       10.00
  S027-443             JUNCTION     2.07     9.73   847.04     1  03:12        9.59
  S027-444             JUNCTION     2.42     8.05   843.13     1  03:11        7.89
  S027-445             JUNCTION     1.63     2.82   837.10     1  03:15        2.82
  S027-682             JUNCTION     2.04    19.92   933.30     1  03:06       19.79
  S027-800             JUNCTION     1.64     9.51   849.00     1  03:11        9.20
  S027-801             JUNCTION     1.53     8.27   850.48     1  03:11        7.40
  S027-802             JUNCTION     1.45     7.00   851.16     1  03:11        6.34
  S027-805             JUNCTION     1.40     7.00   852.86     1  03:11        7.00
  S027-827             JUNCTION     2.27    12.71   920.89     0  13:03       12.71
  S027-831             JUNCTION     1.84     2.51   931.24     1  03:15        2.51
  S027-832             JUNCTION     1.90     2.67   926.73     1  03:15        2.66
  S027-833             JUNCTION     6.08    11.00   922.80     0  13:14       11.00
  S027-834             JUNCTION     5.76    11.87   915.26     0  13:14       10.49
  S027-835             JUNCTION     5.24    10.91   925.10     1  03:06       10.48
  S027-836             JUNCTION     1.77     1.84   927.38     1  03:15        1.84
  S027-837             JUNCTION     1.70     1.75   928.06     1  03:15        1.75
  S027-839             JUNCTION     2.07     8.42   925.76     1  03:05        7.53
  S027-840             JUNCTION     1.70     6.63   926.54     1  03:05        5.01
  S027-843             JUNCTION     1.60     1.67   938.11     1  03:15        1.67
  S027-860             JUNCTION    11.81    15.54   739.34     1  03:15       15.53
  S027-860TA           JUNCTION     8.80    11.78   737.01     1  03:15       11.76
  S027-860W            JUNCTION     2.04     5.96   731.19     1  03:17        5.94
  S027-861             JUNCTION    10.90    14.85   739.94     1  03:15       14.85
  S027-862             JUNCTION     5.23     7.95   729.45     1  03:15        7.95
  S027-862A            JUNCTION     4.42     6.32   728.62     0  00:08        6.13
  S027-867             JUNCTION     2.59    15.09   884.27     1  03:15       15.06
  S027-868             JUNCTION     1.83    15.80   941.45     1  03:12       15.80
  S027-873             JUNCTION    11.31    15.16   741.59     1  03:14       15.14
  S027-875             JUNCTION     1.62     2.75   800.67     1  03:15        2.75
  S027-883             JUNCTION    10.54    14.50   756.86     0  00:01       11.23
  S027-883A            JUNCTION     2.04     6.13   735.13     1  03:19        6.13
  S028-016             JUNCTION     1.72    16.00   817.91     1  03:06       16.00
  S028-025             JUNCTION     2.60     5.55   798.37     1  03:28        4.96
  S028-034             JUNCTION     1.61    21.00   818.92     1  03:10       21.00
  S028-035             JUNCTION     6.09     9.79   771.77     1  03:13        9.75
  S028-035TA           JUNCTION     1.71     9.29   771.49     1  03:11        9.29
  S028-049             JUNCTION     1.29     1.37   798.37     0  14:09        1.29
  S028-050             JUNCTION     2.52    12.84   801.84     1  03:14        7.87
  S028-051             JUNCTION     3.41     9.04   796.77     0  14:07        8.56
  S028-059             JUNCTION     1.23     1.37   824.67     1  03:15        1.37
  S028-060             JUNCTION     1.43     1.59   810.89     1  03:15        1.59
  S028-061             JUNCTION     1.55     1.70   798.00     1  03:15        1.70
  S028-062             JUNCTION     3.49     9.58   794.58     1  03:13        8.16
  S028-063             JUNCTION     1.72     2.72   792.27     1  03:15        2.50
  S028-065             JUNCTION     2.97     8.51   792.40     1  03:12        8.11
  S028-077             JUNCTION     6.04    22.44   746.17     0  00:07       11.64
  S028-078             JUNCTION    14.72    28.13   753.69     1  03:15       28.12
  S028-079             JUNCTION    14.50    31.00   757.05     1  03:10       31.00
  S028-081             JUNCTION     2.60    26.00   764.75     1  03:09       26.00
  S028-081T            JUNCTION     7.16    30.25   764.00     1  03:10       30.17
  S028-090             JUNCTION     2.54     3.96   775.86     0  22:51        3.82
  S028-092             JUNCTION     3.37    21.00   798.00     1  02:27        8.07
  S028-094             JUNCTION     1.91     2.24   793.27     1  03:15        2.24
  S028-095             JUNCTION     1.95     2.98   793.01     1  18:39        2.22
  S028-096             JUNCTION     3.59    21.00   800.14     0  00:30       18.36
  S028-098             JUNCTION     2.16     5.96   795.59     1  18:39        2.64
  S028-101             JUNCTION     3.50    21.00   802.00     0  00:30        9.55
  S028-102             JUNCTION     3.12    19.00   802.80     0  00:30       19.00
  S028-105             JUNCTION     1.83    18.47   814.77     1  03:08       13.77
  S028-106             JUNCTION     1.71     2.77   813.07     1  03:15        2.76
  S028-108             JUNCTION     1.98     2.74   821.69     1  03:15        2.74
  S028-109             JUNCTION     1.42     1.81   822.11     1  03:15        1.81
  S028-110             JUNCTION     1.53     1.91   808.21     1  03:12        1.91
  S028-111             JUNCTION     1.64     4.36   809.77     1  03:12        3.72
  S028-114             JUNCTION     1.75    11.76   807.06     1  03:12       11.30
  S028-117             JUNCTION     1.48     1.68   797.91     1  03:15        1.68
  S028-118             JUNCTION     1.33     1.57   802.57     1  03:15        1.57
  S028-131             JUNCTION     1.49     1.49   824.52     0  05:24        1.49
  S028-132             JUNCTION     9.65    14.00   822.30     0  00:03       10.20
  S028-133             JUNCTION     9.16    14.00   822.80     0  00:03        9.68
  S028-134             JUNCTION    12.49    13.00   822.00     0  00:03       13.00
  S028-135             JUNCTION    12.99    13.00   819.88     0  00:03       13.00
  S028-137             JUNCTION    19.39    22.72   821.24     0  00:03       19.93
  S028-139             JUNCTION    19.75    22.63   813.93     0  00:03       21.73
  S028-141             JUNCTION    22.68    25.39   809.92     0  00:03       25.39
  S028-147             JUNCTION    10.51    12.95   753.00     0  00:03       12.12
  S028-148             JUNCTION    13.74    15.56   758.86     0  00:03       14.96
  S028-155             JUNCTION     1.41     8.93   809.93     1  03:08        8.72
  S028-168             JUNCTION    11.75    18.00   847.30     0  00:05       12.28
  S028-169             JUNCTION    12.62    13.59   845.30     0  12:49       13.59
  S028-176             JUNCTION    13.23    13.25   840.80     0  00:06       13.25
  S028-177             JUNCTION    14.35    14.78   840.38     1  03:14       14.75
  S028-178             JUNCTION    14.04    14.95   839.00     1  03:14       14.93
  S028-192             JUNCTION    13.02    17.73   849.44     0  00:06       15.67
  S028-201             JUNCTION    12.46    14.28   836.38     1  03:14       14.27
  S028-202             JUNCTION    17.37    18.75   831.11     1  03:15       18.69
  S028-204             JUNCTION    10.24    13.17   837.88     1  03:15       13.15
  S028-205             JUNCTION    11.10    14.41   839.12     1  03:14       14.38
  S028-206             JUNCTION     1.54     3.86   839.70     1  03:15        3.84
  S028-208             JUNCTION     2.27    20.10   868.30     1  03:12       20.09
  S028-214             JUNCTION     3.52    13.00   844.87     1  03:10       13.00
  S028-218             JUNCTION     1.52    14.56   836.26     1  03:15       14.52
  S028-219             JUNCTION     7.34    21.60   831.94     1  03:15       21.57
  S028-220             JUNCTION    13.82    23.02   826.14     1  03:15       23.02
  S028-221             JUNCTION    21.39    26.59   823.93     1  03:14       26.58
  S028-222             JUNCTION    15.98    16.00   825.30     0  00:04       16.00
  S028-223             JUNCTION    23.68    24.54   825.30     0  13:02       24.54
  S028-224             JUNCTION    19.81    26.73   823.28     1  03:14       26.72
  S028-231             JUNCTION    19.57    29.82   818.29     1  03:15       29.79
  S028-241             JUNCTION    18.17    32.62   811.67     1  03:15       32.60
  S028-242             JUNCTION    14.05    25.88   799.16     1  03:15       25.87
  S028-244             JUNCTION    13.07    23.17   790.60     1  03:14       23.12
  S028-245             JUNCTION    11.43    21.00   788.03     1  03:10       21.00
  S028-246             JUNCTION    12.63    21.53   781.20     1  03:15       21.51
  S028-251             JUNCTION    12.92    16.88   766.02     0  00:03       16.88
  S028-256             JUNCTION    13.95    18.06   749.00     1  03:15       18.06
  S028-256TA           JUNCTION    16.52    20.30   747.17     1  03:14       20.27
  S028-256TB           JUNCTION    13.88    18.44   745.69     0  00:03       17.10
  S028-257             JUNCTION    14.30    16.55   749.39     1  03:14       16.49
  S028-258             JUNCTION    12.49    12.50   749.80     0  00:03       12.50
  S028-268             JUNCTION    16.48    23.97   749.13     1  03:15       23.95
  S028-269             JUNCTION    18.04    24.35   749.02     1  03:15       24.29
  S028-270             JUNCTION    18.74    34.53   758.87     0  00:03       24.50
  S028-271             JUNCTION    19.56    24.61   748.42     1  03:15       24.58
  S028-272             JUNCTION    13.00    13.00   774.31     0  00:00       13.00
  S028-273             JUNCTION    13.00    13.00   771.43     0  00:00       13.00
  S028-274             JUNCTION    13.00    13.00   768.89     0  00:00       13.00
  S028-275             JUNCTION     1.62    13.00   768.53     1  03:10        6.76
  S028-291             JUNCTION    22.65    25.70   809.56     1  03:14       25.65
  S028-292             JUNCTION    20.58    28.76   807.33     0  00:01       22.60
  S028-293             JUNCTION    19.99    20.00   783.95     0  00:01       20.00
  S028-293TA           JUNCTION    19.99    20.00   778.34     0  00:03       20.00
  S028-299             JUNCTION     5.13    30.50   754.36     0  00:03        5.43
  S028-300             JUNCTION     8.99    17.96   742.76     0  00:03       10.37
  S028-302             JUNCTION    14.50    23.76   749.16     1  03:15       23.75
  S028-302TA           JUNCTION    13.91    22.89   749.19     1  03:15       22.84
  S028-302TB           JUNCTION     3.98    13.98   738.45     1  03:10       11.97
  S028-320             JUNCTION    19.67    24.49   748.20     1  03:15       24.46
  S028-321             JUNCTION    20.08    24.81   748.11     1  03:15       24.80
  S028-322             JUNCTION    20.28    27.08   750.13     0  00:04       24.22
  S028-323             JUNCTION    16.94    24.07   749.03     1  03:15       24.02
  S028-498             JUNCTION     5.09     7.66   847.66     1  03:14        7.64
  S028-499             JUNCTION     6.70    11.71   850.01     0  00:06        9.61
  S028-818             JUNCTION    13.66    16.00   845.30     0  00:06       15.03
  S028-856             JUNCTION    12.88    25.22   848.22     0  00:02       19.44
  S028-862             JUNCTION    15.81    23.37   842.87     0  00:02       17.20
  S028-864             JUNCTION     8.33    13.68   846.92     0  00:02        9.01
  S028-921             JUNCTION    16.06    23.73   749.12     1  03:15       23.72
  S028-924             JUNCTION     1.49    11.00   817.63     1  03:06       11.00
  S028-941             JUNCTION    13.49    13.50   829.80     0  00:02       13.50
  S028-948             JUNCTION    12.80    13.70   823.65     0  13:19       13.70
  S028-954             JUNCTION     1.31     1.77   826.78     1  03:15        1.77
  S028-956             JUNCTION     6.75    10.72   739.12     0  00:03        8.01
  S028-956TA           JUNCTION    10.92    13.72   741.64     0  00:03       12.83
  S028-957             JUNCTION     6.85    29.12   754.12     0  00:03        7.50
  S028-961             JUNCTION    10.30    13.04   743.25     0  00:03       12.39
  S028-962             JUNCTION    11.59    13.83   747.83     0  00:03       13.46
  S028-963             JUNCTION    10.26    12.81   750.81     0  00:03       12.00
  S031-061             JUNCTION     2.98    16.25   822.85     1  03:14       16.24
  S031-067             JUNCTION     1.48     1.70   844.65     1  03:15        1.70
  S031-068             JUNCTION     1.55     9.65   839.03     1  03:09        8.68
  S031-069             JUNCTION     2.06    24.71   837.71     1  03:09       24.25
  S031-070             JUNCTION     1.51    23.48   837.22     1  03:09       23.48
  S031-075             JUNCTION     1.72     2.28   848.08     1  03:15        2.28
  S031-084             JUNCTION     1.85     8.80   845.30     1  03:02        8.80
  S031-085             JUNCTION     1.54     6.77   849.37     1  03:09        5.69
  S031-086             JUNCTION     1.42     2.29   861.89     1  03:15        2.29
  S031-087             JUNCTION     1.32     2.22   871.99     1  03:15        2.22
  S031-219             JUNCTION     1.41     2.01   865.97     1  03:15        2.01
  S031-220             JUNCTION     1.61     2.34   858.23     1  03:15        2.34
  S031-236             JUNCTION     1.74     3.45   849.50     1  03:15        3.45
  S031-237             JUNCTION     1.71     2.52   847.52     1  03:15        2.51
  S031-238             JUNCTION     1.86    11.71   851.08     1  03:03        5.41
  S031-247             JUNCTION     3.35    10.22   845.20     1  03:04        9.98
  S031-248             JUNCTION     4.72     9.30   842.90     0  13:00        9.30
  S031-252             JUNCTION     1.35     6.61   848.06     1  03:04        3.72
  S031-264             JUNCTION     3.68     9.77   843.76     1  03:02        6.37
  S031-265             JUNCTION     2.03     2.69   835.87     1  03:15        2.69
  S031-275             JUNCTION     1.62     1.96   816.50     1  03:15        1.96
  S031-276             JUNCTION     2.72     7.38   809.79     1  03:15        7.37
  S031-277             JUNCTION     2.83    12.24   806.88     0  14:04        4.85
  S031-294             JUNCTION     1.25     2.03   847.03     1  03:15        2.03
  S031-475             JUNCTION     1.72     1.97   939.92     1  03:15        1.97
  S031-476             JUNCTION     1.79     1.93   935.65     1  03:15        1.93
  S031-479             JUNCTION     1.52     1.71   931.25     1  03:15        1.71
  S031-482             JUNCTION     1.64     1.95   917.80     1  03:15        1.95
  S031-484             JUNCTION     2.02     2.40   885.26     1  03:15        2.40
  S031-485             JUNCTION     1.79     2.24   887.19     1  03:15        2.24
  S031-489             JUNCTION     1.95    12.55   867.62     1  03:03       11.19
  S031-490             JUNCTION     2.33     9.75   863.41     1  03:02        9.18
  S031-493             JUNCTION     1.78     1.94   922.18     1  03:15        1.94
  S031-495             JUNCTION     3.72     6.42   847.42     1  03:14        6.39
  S031-505             JUNCTION     1.53    15.80   870.10     1  03:10       15.80
  S031-507             JUNCTION     1.37     2.04   905.91     1  03:15        2.04
  S031-512             JUNCTION     4.43    12.71   862.07     0  12:58       12.71
  S031-516             JUNCTION     2.16    13.12   879.42     1  03:03       12.14
  S031-529             JUNCTION     1.27     2.07   933.98     1  03:15        2.07
  S031-536             JUNCTION     2.14    14.64   890.59     1  03:05       14.64
  S031-541             JUNCTION     1.71    11.14   898.13     1  03:05       10.91
  S031-545             JUNCTION     1.56     8.40   907.70     1  03:15        8.40
  S031-698             JUNCTION     1.33     1.77   920.21     1  03:15        1.77
  S031-701             JUNCTION     1.58     1.60   867.40     1  03:21        1.59
  S031-704             JUNCTION     9.40    10.42   847.16     0  00:03        9.50
  S031-705             JUNCTION    10.20    12.24   846.67     0  00:02       10.48
  S031-706             JUNCTION     1.66     8.99   837.99     1  03:15        8.99
  S031-709             JUNCTION     1.56     2.83   831.16     1  03:15        2.83
  S031-712             JUNCTION     1.40     1.87   817.87     1  03:15        1.87
  S031-765             JUNCTION     6.24    11.00   856.32     1  03:02       11.00
  S031-766             JUNCTION    10.00    10.00   846.80     0  00:01       10.00
  S031-767             JUNCTION     4.97     8.72   857.15     1  03:02        8.72
  S031-768             JUNCTION     5.40     8.40   833.74     0  00:01        8.40
  S031-770             JUNCTION     1.58     2.37   826.99     1  03:15        2.37
  S031-772             JUNCTION     1.33     2.26   850.10     1  03:15        2.26
  S031-773             JUNCTION     1.47     5.75   839.50     1  03:10        4.85
  S031-774             JUNCTION     1.57     7.00   833.40     1  03:05        7.00
  S031-775             JUNCTION     1.88     7.00   826.65     0  13:07        6.42
  S031-776             JUNCTION     1.34     1.97   823.77     1  03:15        1.97
  S031-869             JUNCTION     4.61     7.00   847.47     0  00:06        7.00
  S031-880             JUNCTION     1.32     1.44   877.24     1  03:15        1.44
  S031-908             JUNCTION     1.38     1.61   855.19     1  03:15        1.61
  S031-910             JUNCTION     1.60     1.63   874.93     1  03:15        1.63
  S031-915             JUNCTION     1.13    12.74   819.35     1  03:14       12.72
  S031-949             JUNCTION     1.33     1.96   929.76     1  03:15        1.95
  S031-971             JUNCTION     3.73    11.11   845.68     1  03:03        9.17
  S032-129             JUNCTION     1.88    28.59   897.54     1  03:15       28.57
  S032-131             JUNCTION     2.01    27.80   903.80     1  03:15       27.79
  S032-137             JUNCTION     2.48    43.11   928.12     1  03:14       43.08
  S032-138             JUNCTION     1.83    29.20   928.41     1  03:07       29.20
  S032-139             JUNCTION     1.44    23.00   929.39     1  03:07       23.00
  S032-142             JUNCTION     1.31    14.80   936.15     1  03:07       14.80
  S032-291             JUNCTION     1.55    19.68   935.69     1  03:06       19.68
  S032-292             JUNCTION     1.66    20.16   935.65     1  03:06       19.63
  S032-293             JUNCTION     1.75    19.79   934.50     1  03:06       19.65
  S032-294             JUNCTION     1.80    19.70   933.50     1  03:06       19.66
  S032-295             JUNCTION     2.19    19.70   932.79     1  03:06       19.70
  S032-296             JUNCTION     2.16    21.50   932.99     1  03:07       20.69
  S032-308             JUNCTION     1.39    26.12   941.75     1  03:07       22.22
  S032-309             JUNCTION     1.48    23.83   937.04     1  03:07       21.48
  S032-310             JUNCTION     1.71    24.25   934.15     1  03:07       21.57
  S032-664             JUNCTION     1.69     3.92   889.69     1  03:15        3.92
  S032-665             JUNCTION     1.58     3.15   887.87     1  03:15        3.03
  BRWWTP               OUTFALL      0.00     0.00   730.00     0  00:00        0.00
  S006-CSO6            OUTFALL      0.00     0.00   720.26     0  00:00        0.00
  S009-CSO5            OUTFALL      0.00     0.00   720.52     0  00:00        0.00
  S012-001TA           OUTFALL      0.00     0.00   718.00     0  00:00        0.00
  S027-CSO4            OUTFALL      4.59     6.93   728.58     1  03:15        6.93
  S028-CSO1            OUTFALL      0.00     0.00   719.00     0  00:00        0.00
  S028-CSO2            OUTFALL      0.00     0.00   722.46     0  00:00        0.00
  S028-CSO3            OUTFALL      0.00     0.00   720.00     0  00:00        0.00
  S028CSO130           OUTFALL      0.00     0.00   724.00     0  00:00        0.00
  N14057               STORAGE     48.32    56.47   750.47     0  00:00       56.16
  S012-007             STORAGE     29.66    32.44   726.44     1  03:15       32.42
  S026-812             STORAGE      1.98    26.01   766.22     1  03:15       11.76
  
  
  *******************
  Node Inflow Summary
  *******************
  
  -------------------------------------------------------------------------------------------------
                                  Maximum  Maximum                  Lateral       Total        Flow
                                  Lateral    Total  Time of Max      Inflow      Inflow     Balance
                                   Inflow   Inflow   Occurrence      Volume      Volume       Error
  Node                 Type           CFS      CFS  days hr:min    10^6 gal    10^6 gal     Percent
  -------------------------------------------------------------------------------------------------
  N1                   JUNCTION      1.55     1.55     0  00:00        2.01        2.01       0.017
  N10                  JUNCTION      0.00     0.00     0  00:00           0           0       0.000 gal
  N11                  JUNCTION      0.00     0.00     0  00:00           0           0       0.000 gal
  N12                  JUNCTION      0.00     0.00     0  00:00           0           0       0.000 gal
  N13                  JUNCTION      0.00     0.00     0  00:00           0           0       0.000 gal
  N14                  JUNCTION      0.00     0.00     0  00:00           0           0       0.000 gal
  N15                  JUNCTION      0.00     0.00     0  00:00           0           0       0.000 gal
  N2                   JUNCTION      1.55     3.10     0  00:06        2.01        4.03       0.046
  N3                   JUNCTION      0.00     3.10     0  14:02           0        4.03       0.015
  N4                   JUNCTION      0.00     3.10     0  17:45           0        4.02       0.031
  N5                   JUNCTION      0.00     3.10     0  11:29           0        4.02       0.009
  N6                   JUNCTION      0.00     0.00     0  00:00           0           0       0.000 gal
  N7                   JUNCTION      0.00     0.00     0  00:00           0           0       0.000 gal
  N8                   JUNCTION      0.00     0.00     0  00:00           0           0       0.000 gal
  N9                   JUNCTION      0.00     0.00     0  00:00           0           0       0.000 gal
  NEIDPS_SG            JUNCTION      0.00   125.16     0  00:18           0        90.4       0.075
  S005-005             JUNCTION      7.81    17.39     0  13:03        10.1        22.6       0.006
  S005-006             JUNCTION      7.81    15.46     0  00:00        10.1        12.4       0.023
  S005-007             JUNCTION      7.81    18.80     0  00:00        10.1        10.1       0.037
  S005-008             JUNCTION      7.81    23.48     0  00:01        10.1          18       0.025
  S005-009             JUNCTION      7.81    25.30     0  00:01        10.1        17.2       0.031
  S005-835             JUNCTION      7.81    19.73     0  00:01        10.1        10.1       0.032
[...]
  027-099                     2.36      2.80      2.53      2.52         2.34
  027-100                     1.73      1.73      2.48      0.01         0.01
  027-129                     1.49      1.49      1.77      0.01         0.01
  027-247                     1.02      1.02      1.22      1.22         1.02
  027-248                     0.28      0.28      1.02      0.01         0.01
  027-249                     0.26      0.26      0.28      0.01         0.01
  027-251                     0.25      0.25      0.27      0.01         0.01
  027-271                     0.05      0.05      0.11      0.01         0.01
  027-273                     0.07      0.07      0.13      0.08         0.05
  027-274                     0.22      1.40      0.24      0.24         0.22
  027-275                     0.08      0.08     47.26      0.01         0.01
  027-276                     0.28      1.21      0.93      0.26         0.25
  027-277                     0.09      0.09      0.17      0.11         0.06
  027-278                     0.16      0.16      0.21      0.01         0.01
  027-279                     0.21      0.21      0.23      0.19         0.18
  027-280                     0.23      0.23     48.23      0.02         0.02
  027-281                    48.22     48.22     48.23      0.01         0.01
  027-282                    48.22     48.22     48.22      0.05         0.05
  027-283                    48.22     48.22     48.23     45.82         0.01
  027-284                    48.17     48.17     48.20      0.01         0.01
  027-286                    48.20     48.20     48.20     46.33        46.24
  027-287                    48.20     48.20     48.20      0.01         0.01
  027-294                    48.17     48.20     48.17     48.21        48.17
  027-295                    48.17     48.17     48.18     48.19        47.95
  027-296                    48.17     48.17     48.17      0.01         0.01
  027-297                    48.16     48.16     48.17      0.01         0.01
  027-304                    48.18     48.18     48.18      0.01         0.01
  027-306                     0.01      0.18      0.01      3.64         0.01
  027-308                    48.18     48.18     48.18     48.20        48.18
  027-309                    48.16     48.16     48.18      0.01         0.01
  027-359                     1.72      1.72      1.97      0.01         0.01
  027-426                    48.15     48.15     48.15      0.07         0.01
  027-427                    48.15     48.16     48.15      0.07         0.01
  027-428                    48.16     48.17     48.16     48.18        48.16
  027-429                    48.17     48.17     48.17     48.19        48.16
  027-430                    48.17     48.18     48.17     48.19        28.77
  027-431                    48.18     48.18     48.18      1.95         7.09
  027-432                    48.18     48.18     48.18      0.32         0.40
  027-433                    48.18     48.18     48.18      0.21         0.19
  027-434                    48.18     48.18     48.18      1.33         1.34
  027-435                    48.20     48.21     48.21     48.21        48.20
  027-436A                   48.21     48.21     48.23      0.18         0.18
  027-437                     0.01      0.01      0.17      0.01         0.01
  027-438                     0.10      0.23      0.10      0.26         0.10
  027-439                     0.01      0.01      0.11      0.11         0.01
  027-440                     0.01      0.01      0.07      0.01         0.01
  027-442                     0.15      0.15      0.19      0.10         0.09
  027-443                     0.19      0.19      0.22      0.12         0.12
  027-444                     0.01      0.22      0.01      0.27         0.01
  027-682                     0.93      0.93      1.07      0.01         0.01
  027-800                     0.12      0.12      0.15      0.01         0.01
  027-801                     0.10      0.10      0.12      0.01         0.01
  027-802                     0.08      0.08      0.10      0.01         0.01
  027-805                     0.08      0.13      0.08      0.18         0.08
  027-827                     2.01      2.01      2.34      0.01         0.01
  027-832                     0.01      0.01     48.15      0.01         0.01
  027-833                    48.20     48.20     48.23     47.14        47.21
  027-834                     8.43     48.22      8.44      8.43         8.42
  027-835                    42.75     42.75     48.15      0.01         0.01
  027-839                     1.80      1.80     42.75      0.01         0.01
  027-840                     1.47      1.47      1.80      0.01         0.01
  027-860A                   48.20     48.24     48.20     48.22         0.03
  027-860TA                   0.18     48.15      0.18     48.17         0.18
  027-861                    48.17     48.17     48.18     48.19         0.01
  027-862                     0.01      0.01      0.01      1.50         0.01
  027-862A                    0.01      0.01      0.23      0.01         0.01
  027-867                     0.24      0.92      0.25      0.25         0.24
  027-868                     0.11      0.11      1.40      0.13         0.11
  027-873                    48.18     48.18     48.18      0.01         0.01
  027-875                     0.01      0.01      0.24      0.01         0.01
  027-883.1                  48.22     48.22     48.22     48.25        26.85
  028-016                     0.20      0.20      0.24      0.01         0.01
  028-025                     0.01      0.01      0.06      0.01         0.01
  028-034                     0.22      0.22     48.23      0.20         0.19
  028-035A                   48.24     48.24     48.24     48.24         0.01
  028-035TA                   0.28      0.28      0.31      0.31         0.28
  028-049                     0.01      0.01      0.11      0.01         0.01
  028-050                     0.05      0.05      0.29      0.01         0.01
  028-051                     0.06      0.30      0.06      0.35         0.06
  028-062                     0.06      0.06      0.06      0.14         0.05
  028-063                     0.01      0.01      0.06      0.01         0.01
  028-065                     0.06      0.06      0.24      0.01         0.01
  028-077                     0.13      2.23      0.15     30.73         0.13
  028-078                    48.18     48.18     48.18     48.19        47.81
  028-079                    48.18     48.18     48.18     48.22        47.97
  028-081                     0.25      0.25     13.87      0.01         0.01
  028-081T                   13.87     13.87     48.18      0.01         0.01
  028-090                     0.01      0.01      0.25      0.01         0.01
  028-092                     0.01      0.16      0.03      0.02         0.01
  028-095                     0.01      0.01      0.01      0.01         0.01
  028-096                     0.18      0.50      0.24      0.57         0.18
  028-098                     0.01      0.01      0.12      0.03         0.01
  028-101                     0.15      0.24      0.50      0.18         0.15
  028-102                     5.53     28.69      8.89      7.41         4.77
  028-105                     0.16      0.16      1.89      0.01         0.01
  028-106                     0.01      0.01      0.16      0.01         0.01
  028-110                     0.01      0.01      0.05      0.01         0.01
  028-111                     0.05      0.05      0.18      0.01         0.01
  028-114                     0.18      0.18     28.67      0.01         0.01
  028-131.2                   0.01      0.01     48.19      0.01         0.01
  028-132                    48.19     48.19     48.21      0.01         0.01
  028-133                    48.19     48.19     48.19      0.01         0.01
  028-134                    48.22     48.22     48.22     48.22        48.22
  028-135                    48.20     48.20     48.22      0.01         0.01
  028-137                    48.22     48.22     48.23      0.01         0.01
  028-139                    48.22     48.22     48.23      0.01         0.01
  028-141                    48.23     48.23     48.23     46.64        42.40
  028-147                    48.22     48.22     48.22     48.22        48.22
  028-148                    48.22     48.22     48.22     48.23        48.22
  028-155                     0.14      0.14      0.17      0.18         0.14
  028-168                    48.16     48.16     48.21      0.01         0.01
  028-169.1                  48.16     48.16     48.17     48.11        48.12
  028-169.2                  24.50     24.50     48.13     48.12         0.01
  028-176                    48.20     48.20     48.21      0.01         0.01
  028-177                    48.20     48.20     48.21     47.98        47.97
  028-178                    48.17     48.21     48.17     48.22        48.17
  028-192                    48.20     48.21     48.21      1.59         1.57
  028-201                    48.17     48.17     48.18      0.01         0.01
  028-202                    48.18     48.18     48.22      0.01         0.01
  028-204                    48.17     48.17     48.18      0.12         0.12
  028-205                    48.17     48.17     48.23     48.24         0.01
  028-206                     0.09      0.09     48.23      0.01         0.01
  028-208                     0.51      0.51     35.36      0.13         0.13
  028-214                    35.36     35.36     48.18      0.01         0.01
  028-218                     0.24      0.24     48.17      0.01         0.01
  028-219                    48.17     48.17     48.18      0.01         0.01
  028-220                    48.18     48.18     48.23      0.01         0.01
  028-221                    48.22     48.22     48.23     48.15        48.14
  028-222                    48.18     48.18     48.22      0.01         0.01
  028-223                    48.22     48.22     48.22     47.99        47.99
  028-224                    48.19     48.19     48.20     46.20        46.20
  028-231                    48.19     48.19     48.20     47.44        47.43
  028-241                    48.20     48.20     48.21     48.21        48.20
  028-242                    48.19     48.19     48.22     48.19        48.19
  028-244                    48.21     48.22     48.21     48.22        48.21
  028-245                    48.18     48.18     48.18      0.01         0.01
  028-246                    48.18     48.18     48.19      2.14         2.14
  028-251                    48.19     48.19     48.20     48.17        48.17
  028-256                    48.19     48.19     48.21      0.01         0.01
  028-256TA                  48.22     48.25     48.22      0.47         0.18
  028-256TC                  48.19     48.20     48.19     48.20        48.19
  028-257                    48.20     48.20     48.20     46.75        46.74
  028-258                    48.19     48.19     48.20      0.01         0.01
  028-268                    48.20     48.20     48.20     45.73         0.01
  028-269                    48.19     48.20     48.19     46.69         0.02
  028-270                    48.19     48.19     48.19      0.07         0.07
  028-271                    48.19     48.19     48.19      0.19         0.19
  028-272                    48.24     48.24     48.24      0.01         0.01
  028-273                    48.24     48.24     48.24      0.01         0.01
  028-274                    48.24     48.24     48.24     48.24        48.24
  028-275                     0.11      0.11      0.17      0.01         0.01
  028-291                    48.22     48.22     48.23     48.23        48.22
  028-292                    48.22     48.22     48.22     48.19        48.19
  028-293                    48.22     48.22     48.22      0.05         0.05
  028-293TA                  48.22     48.22     48.22     48.22        48.22
  028-299                     0.01      0.01      0.01      0.01         0.01
  028-300                     0.13     48.20      0.13     48.19         0.13
  028-302A                   48.19     48.19     48.20     48.00         0.01
  028-302TA                  48.20     48.20     48.20     47.98         0.01
  028-302TB                   0.74      0.74      2.23      0.15         0.17
  028-320                    48.19     48.19     48.19      0.01         0.01
  028-321                    48.18     48.19     48.18      0.32         0.29
  028-322                    48.18     48.18     48.18      2.48         4.99
  028-323                    48.20     48.20     48.20     47.93         0.01
  028-498                    48.14     48.14     48.16      0.08         0.01
  028-499                    48.14     48.14     48.20      0.01         0.01
  028-818                    48.20     48.21     48.20     48.23        48.20
  028-856                    48.20     48.20     48.21      0.24         0.24
  028-862                    48.21     48.21     48.22     48.23        48.21
  028-864                    48.20     48.20     48.21      0.01         0.01
  028-921                    48.20     48.20     48.20     47.93         0.02
  028-924                     0.18      0.18      0.20      0.01         0.01
  028-941                    48.21     48.21     48.22     47.16        47.15
  028-948                    48.22     48.22     48.22     48.22        48.21
  028-956                    48.16     48.18     48.16     48.19        48.16
  028-957                     0.13     48.16      0.14     48.20         0.13
  028-961                    48.20     48.20     48.21      0.60         0.55
  028-962                    48.20     48.20     48.20     48.21        48.20
  028-963                    48.19     48.19     48.20      0.01         0.01
  031-061                     0.28      0.28      0.89      0.20         0.20
  031-067                     0.01      0.01      0.12      0.01         0.01
  031-068                     0.12      0.12      0.19      0.01         0.01
  031-069                     0.27      0.27      0.28      0.27         0.26
  031-070                     0.26      0.26      0.27      0.01         0.01
  031-084                     1.59      1.59     48.16      0.01         0.01
  031-085                     0.11      0.11      1.59      0.01         0.01
  031-086                     0.01      0.01      0.11      0.01         0.01
  031-237                     0.01      0.01      0.18      0.01         0.01
  031-238                     0.19      0.19      1.98      0.01         0.01
  031-247                    48.12     48.12     48.16      0.22         0.22
  031-248                     1.72      1.72     48.05     48.15         0.01
  031-252                     0.16      0.16     24.52      0.01         0.01
  031-264                     0.01      1.72      0.01      7.32         0.01
  031-275                     0.01      0.01      0.13      0.01         0.01
  031-276                     0.13      0.13      0.23      0.23         0.13
  031-277                     0.01      0.01      0.04      0.05         0.01
  031-294                     0.01      0.01      1.49      0.01         0.01
  031-484                     0.01      0.01      1.60      0.01         0.01
  031-485                     0.01      0.01      0.24      0.01         0.01
  031-489                     0.25      0.25     48.21      0.08         0.08
  031-490                     1.60      1.60     48.19      0.15         0.15
  031-495                    48.13     48.13     48.14      1.32         0.01
  031-505                     0.22      0.22      0.51      0.01         0.01
  031-507                     0.01      0.01      0.16      0.01         0.01
  031-512                    43.77     43.77     48.16      1.85         1.85
  031-516                     1.37      1.37     43.77      0.01         0.01
  031-536                     0.99      0.99      1.37      0.27         0.27
  031-541                     0.23      0.23      0.99      0.01         0.01
  031-545                     0.10      0.10      0.23      0.01         0.01
  031-701                     0.01      0.01      0.14      0.01         0.01
  031-704                    48.23     48.23     48.23      0.02         0.03
  031-705                    48.23     48.23     48.23     48.23        48.22
  031-706                     1.49      1.49     48.23      0.07         0.07
  031-765                    48.21     48.21     48.24      0.26         0.26
  031-766                    48.23     48.23     48.23     48.24        48.23
  031-767                    48.19     48.19     48.23      0.01         0.01
  031-768                     0.01      0.01     48.23      0.01         0.01
  031-772                     0.01      0.01      0.09      0.01         0.01
  031-773                     0.09      0.09      0.21      0.01         0.01
  031-774                     0.21      0.21      0.90      0.19         0.20
  031-775                     0.25      0.90      0.27      1.13         0.25
  031-869                    48.14     48.14     48.14      0.01         0.01
  031-915                     0.89      0.89      1.77      0.30         0.29
  031-971                     1.98      1.98     48.05      0.01         0.01
  032-129                     0.25      0.25      0.33      0.25         0.24
  032-131                     0.41      0.45      0.73      0.83         0.34
  032-137                     1.55      1.66      1.62      1.77         1.55
  032-138                     1.03      1.03      1.56      0.01         0.01
  032-139                     0.85      0.85      1.59      0.01         0.01
  032-142                     0.24      0.24      0.73      0.01         0.01
  032-291                     0.51      0.51      0.54      0.21         0.18
  032-292                     0.54      0.54      0.74      0.04         0.05
  032-293                     0.58      0.58      0.88      0.01         0.01
  032-294                     0.88      0.88      1.00      0.01         0.01
  032-295                     1.02      1.15      1.02      1.16         0.82
  032-296                     0.60      1.17      0.60      1.21         0.40
  032-308                     0.27      0.27      0.36      0.06         0.06
  032-309                     0.36      0.36      0.60      0.01         0.01
  032-310                     0.51      0.51      1.03      0.01         0.01
  032-664                     0.01      0.16      0.01      0.20         0.01
  032-665                     0.01      0.01      0.01      0.01         0.01
  28-956TA.1                 48.23     48.24     48.24     48.19         0.05
  CSO-309B                   48.21     48.21     48.21     48.21        48.21
  L14158                      0.01      0.01     48.25      0.01         0.01
  L5                          0.01      0.01     48.24      0.01         0.01
  
  
  ***************
  Pumping Summary
  ***************
  
  ---------------------------------------------------------------------------------------------------------
                                                  Min       Avg       Max     Total     Power    % Time Off
                        Percent   Number of      Flow      Flow      Flow    Volume     Usage    Pump Curve
  Pump                 Utilized   Start-Ups       CFS       CFS       CFS  10^6 gal     Kw-hr    Low   High
  ---------------------------------------------------------------------------------------------------------
  NEID_PUMP1              99.43           3      0.00     74.00     74.00    95.600   5523.77    0.0    0.0
  

  Analysis begun on:  Fri Mar  6 14:57:27 2026
  Analysis ended on:  Fri Mar  6 14:58:05 2026
  Total elapsed time: 00:00:38