
  EPA STORM WATER MANAGEMENT MODEL - VERSION 5.2 (Build 5.2.4)
  ------------------------------------------------------------

  Scenario Run :  BASE 
  WARNING 04: minimum elevation drop used for Conduit DNLINK
  WARNING 04: minimum elevation drop used for Conduit UPLINK
  
  *************
  Element Count
  *************
  Number of rain gages ...... 0
  Number of subcatchments ... 0
  Number of nodes ........... 15
  Number of links ........... 13
  Number of pollutants ...... 0
  Number of land uses ....... 0
  
  
  ************
  Node Summary
  ************
                                           Invert      Max.    Ponded    External
  Name                 Type                 Elev.     Depth      Area    Inflow  
  -------------------------------------------------------------------------------
  4                    JUNCTION              0.00      0.00       0.0
  A1                   JUNCTION              8.33     11.67       0.0    Yes
  ABREAK2              JUNCTION              0.59     20.00       0.0
  AMID1                JUNCTION              1.49     20.00       0.0
  AMID2                JUNCTION              0.89     20.00       0.0
  AMID3                JUNCTION              1.65     20.00       0.0
  AMID4                JUNCTION              1.34     20.00       0.0
  AMID5                JUNCTION              1.04     20.00       0.0
  AMID6                JUNCTION              0.74     20.00       0.0
  BREAK                JUNCTION              1.80     20.00       0.0
  MIDTUNNEL            JUNCTION              1.19     20.00       0.0
  A2                   OUTFALL               5.44      1.00       0.0
  A9                   OUTFALL               0.40      0.00       0.0
  AST1                 STORAGE               1.80     20.00       0.0
  AST2                 STORAGE               0.59     20.00       0.0
  
  
  ************
  Link Summary
  ************
  Name             From Node        To Node          Type            Length    %Slope Roughness
  ---------------------------------------------------------------------------------------------
  AIN              A1               AST1             CONDUIT          100.0    0.3750    0.0130
  AOUT             AST1             A2               CONDUIT          100.0    2.5108    0.0130
  ATUNNEL          BREAK            AMID3            CONDUIT           60.0    0.2521    0.0130
  CDT-11           MIDTUNNEL        AMID5            CONDUIT           60.0    0.2521    0.0130
  CDT-13           AMID1            AMID4            CONDUIT           60.0    0.2521    0.0130
  CDT-15           AMID2            AMID6            CONDUIT           60.0    0.2521    0.0130
  CDT-17           AMID3            AMID1            CONDUIT           60.0    0.2521    0.0130
  CDT-19           AMID4            MIDTUNNEL        CONDUIT           60.0    0.2521    0.0130
  CDT-21           AMID5            AMID2            CONDUIT           60.0    0.2521    0.0130
  CDT-23           AMID6            ABREAK2          CONDUIT           60.0    0.2521    0.0130
  DNLINK           ABREAK2          AST2             CONDUIT           10.0    0.0030    0.0130
  UPLINK           AST1             BREAK            CONDUIT           10.0    0.0030    0.0130
  AGATE            AST2             A9               ORIFICE     
  
  
  *********************
  Cross Section Summary
  *********************
                                        Full     Full     Hyd.     Max.   No. of     Full
  Conduit          Shape               Depth     Area     Rad.    Width  Barrels     Flow
  ---------------------------------------------------------------------------------------
  AIN              CIRCULAR             1.00     0.79     0.25     1.00        1     1.47
  AOUT             CIRCULAR             1.00     0.79     0.25     1.00        1     3.80
  ATUNNEL          RECT_CLOSED          2.00     4.00     0.50     2.00        1     9.73
  CDT-11           RECT_CLOSED          2.00     4.00     0.50     2.00        1     9.73
  CDT-13           RECT_CLOSED          2.00     4.00     0.50     2.00        1     9.73
  CDT-15           RECT_CLOSED          2.00     4.00     0.50     2.00        1     9.73
  CDT-17           RECT_CLOSED          2.00     4.00     0.50     2.00        1     9.73
  CDT-19           RECT_CLOSED          2.00     4.00     0.50     2.00        1     9.73
  CDT-21           RECT_CLOSED          2.00     4.00     0.50     2.00        1     9.73
  CDT-23           RECT_CLOSED          2.00     4.00     0.50     2.00        1     9.73
  DNLINK           RECT_CLOSED          2.00     4.00     0.50     2.00        1     1.07
  UPLINK           RECT_CLOSED          2.00     4.00     0.50     2.00        1     1.07
  
  
  *************
  Shape Summary
  *************

  Shape SLOT1MM_10M
  Area:  
              0.0557     0.1085     0.1584     0.2055     0.2498 
              0.2912     0.3297     0.3654     0.3983     0.4282 
              0.4564     0.4839     0.5107     0.5368     0.5621 
              0.5868     0.6107     0.6339     0.6564     0.6782 
              0.6992     0.7196     0.7392     0.7582     0.7764 
              0.7939     0.8107     0.8268     0.8421     0.8568 
              0.8707     0.8839     0.8964     0.9082     0.9193 
              0.9297     0.9394     0.9483     0.9565     0.9641 
              0.9709     0.9769     0.9823     0.9870     0.9909 
              0.9942     0.9967     0.9985     0.9996     1.0000 
  Hrad:  
              0.5112     0.8508     1.0844     1.2479     1.3626 
              1.4420     1.4951     1.5280     1.5451     1.5495 
              1.5501     1.5484     1.5446     1.5392     1.5324 
              1.5244     1.5154     1.5054     1.4946     1.4831 
              1.4710     1.4583     1.4452     1.4315     1.4175 
              1.4031     1.3884     1.3734     1.3581     1.3426 
              1.3268     1.3108     1.2946     1.2783     1.2618 
              1.2451     1.2283     1.2113     1.1942     1.1770 
              1.1597     1.1423     1.1248     1.1072     1.0895 
              1.0718     1.0539     1.0360     1.0181     1.0000 
  Width: 
              0.9500     0.9001     0.8501     0.8001     0.7501 
              0.7002     0.6502     0.6002     0.5502     0.5003 
              0.4878     0.4753     0.4628     0.4503     0.4378 
              0.4253     0.4128     0.4003     0.3878     0.3753 
              0.3628     0.3503     0.3378     0.3253     0.3128 
              0.3003     0.2879     0.2754     0.2629     0.2504 
              0.2379     0.2254     0.2129     0.2004     0.1879 
              0.1754     0.1629     0.1504     0.1379     0.1254 
              0.1129     0.1004     0.0880     0.0755     0.0630 
              0.0505     0.0380     0.0255     0.0130     0.0005 
  
  
  ****************
  Analysis Options
  ****************
  Flow Units ............... CMS
  Process Models:
    Rainfall/Runoff ........ NO
    RDII ................... NO
    Snowmelt ............... NO
    Groundwater ............ NO
    Flow Routing ........... YES
    Ponding Allowed ........ NO
    Water Quality .......... NO
  Flow Routing Method ...... DYNWAVE
  Surcharge Method ......... EXTRAN
  Starting Date ............ 09/09/2016 00:00:00
  Ending Date .............. 09/09/2016 04:00:00
  Antecedent Dry Days ...... 0.0
  Report Time Step ......... 00:01:00
  Routing Time Step ........ 5.00 sec
  Variable Time Step ....... YES
  Maximum Trials ........... 8
  Number of Threads ........ 1
  Head Tolerance ........... 0.001000 m
  
  
  **************************        Volume        Volume
  Flow Routing Continuity        hectare-m      10^6 ltr
  **************************     ---------     ---------
  Dry Weather Inflow .......         0.000         0.000
  Wet Weather Inflow .......         0.000         0.000
  Groundwater Inflow .......         0.000         0.000
  RDII Inflow ..............         0.000         0.000
  External Inflow ..........         1.440        14.398
  External Outflow .........         1.198        11.979
  Flooding Loss ............         0.000         0.000
  Evaporation Loss .........         0.000         0.000
  Exfiltration Loss ........         0.000         0.000
  Initial Stored Volume ....         0.000         0.000
  Final Stored Volume ......         0.212         2.119
  Continuity Error (%) .....         2.082
  
  
  *************************
  Highest Continuity Errors
  *************************
  Node AMID2 (3.51%)
  Node AMID6 (3.51%)
  Node AMID5 (3.45%)
  Node MIDTUNNEL (3.33%)
  Node AMID4 (3.23%)
  
  
  ***************************
  Time-Step Critical Elements
  ***************************
  Link UPLINK (22.40%)
  Link DNLINK (13.20%)
  
  
  ********************************
  Highest Flow Instability Indexes
  ********************************
  Link DNLINK (56)
  Link CDT-23 (35)
  Link UPLINK (34)
  Link CDT-15 (31)
  Link CDT-21 (29)
  
  
  *********************************
  Most Frequent Nonconverging Nodes
  *********************************
  Node A2 (7.16%)
  Node A9 (7.16%)
  Node AMID2 (4.89%)
  Node AMID5 (4.89%)
  Node MIDTUNNEL (4.67%)
  
  
  *************************
  Routing Time Step Summary
  *************************
  Minimum Time Step           :     0.50 sec
  Average Time Step           :     3.93 sec
  Maximum Time Step           :     5.00 sec
  % of Time in Steady State   :     0.00
  Average Iterations per Step :     3.13
  % of Steps Not Converging   :     7.16
  Time Step Frequencies       :
      5.000 -  0.910 sec      :    99.97 %
      0.910 -  0.166 sec      :     0.03 %
      0.166 -  0.030 sec      :     0.00 %
      0.030 -  0.005 sec      :     0.00 %
      0.005 -  0.001 sec      :     0.00 %
  
  
  ******************
  Node Depth Summary
  ******************
  
  ---------------------------------------------------------------------------------
                                 Average  Maximum  Maximum  Time of Max    Reported
                                   Depth    Depth      HGL   Occurrence   Max Depth
  Node                 Type       Meters   Meters   Meters  days hr:min      Meters
  ---------------------------------------------------------------------------------
  4                    JUNCTION     0.00     0.00     0.00     0  00:00        0.00
  A1                   JUNCTION     0.61     0.61     8.94     0  00:30        0.61
  ABREAK2              JUNCTION     5.41     7.60     8.19     0  00:55        7.60
  AMID1                JUNCTION     4.57     6.69     8.19     0  00:59        6.69
  AMID2                JUNCTION     5.12     7.30     8.19     0  00:58        7.30
  AMID3                JUNCTION     4.43     6.54     8.19     0  00:58        6.54
  AMID4                JUNCTION     4.70     6.85     8.19     0  00:56        6.85
  AMID5                JUNCTION     4.98     7.15     8.19     0  00:58        7.15
  AMID6                JUNCTION     5.26     7.45     8.19     0  00:55        7.45
  BREAK                JUNCTION     4.30     6.39     8.19     0  00:56        6.39
  MIDTUNNEL            JUNCTION     4.84     7.00     8.19     0  00:58        7.00
  A2                   OUTFALL      0.15     0.24     5.68     0  00:56        0.24
  A9                   OUTFALL      0.00     0.00     0.40     0  00:00        0.00
  AST1                 STORAGE      4.31     6.39     8.19     0  00:56        6.39
  AST2                 STORAGE      5.41     7.60     8.19     0  00:55        7.60
  
  
  *******************
  Node Inflow Summary
  *******************
  
  -------------------------------------------------------------------------------------------------
                                  Maximum  Maximum                  Lateral       Total        Flow
                                  Lateral    Total  Time of Max      Inflow      Inflow     Balance
                                   Inflow   Inflow   Occurrence      Volume      Volume       Error
  Node                 Type           CMS      CMS  days hr:min    10^6 ltr    10^6 ltr     Percent
  -------------------------------------------------------------------------------------------------
  4                    JUNCTION     0.000    0.000     0  00:00           0           0       0.000 ltr
  A1                   JUNCTION     1.000    1.000     0  00:00        14.4        14.4       0.368
  ABREAK2              JUNCTION     0.000    1.394     0  00:27           0           7       2.460
  AMID1                JUNCTION     0.000    1.012     0  00:04           0        8.37       3.192
  AMID2                JUNCTION     0.000    1.681     0  00:25           0        7.41       3.639
  AMID3                JUNCTION     0.000    1.034     0  00:38           0        8.62       3.055
  AMID4                JUNCTION     0.000    1.016     0  00:05           0        8.11       3.336
  AMID5                JUNCTION     0.000    1.226     0  00:25           0        7.59       3.572
  AMID6                JUNCTION     0.000    1.927     0  00:26           0        7.33       3.632
  BREAK                JUNCTION     0.000    1.063     0  00:32           0        8.79       1.967
  MIDTUNNEL            JUNCTION     0.000    1.019     0  00:05           0        7.85       3.445
  A2                   OUTFALL      0.000    0.492     0  00:56           0        5.45       0.000
  A9                   OUTFALL      0.000    0.513     0  00:55           0        6.53       0.000
  AST1                 STORAGE      0.000    1.000     0  00:42           0        14.3       0.523
  AST2                 STORAGE      0.000    1.023     0  00:29           0        6.64       1.237
  
  
  **********************
  Node Surcharge Summary
  **********************
  
  Surcharging occurs when water rises above the top of the highest conduit.
  ---------------------------------------------------------------------
                                               Max. Height   Min. Depth
                                   Hours       Above Crown    Below Rim
  Node                 Type      Surcharged         Meters       Meters
  ---------------------------------------------------------------------
  4                    JUNCTION        4.00          0.000        0.000
  ABREAK2              JUNCTION        3.51          5.602       12.398
  AMID1                JUNCTION        3.29          4.695       13.305
  AMID2                JUNCTION        3.42          5.299       12.701
  AMID3                JUNCTION        3.27          4.544       13.456
  AMID4                JUNCTION        3.31          4.846       13.154
  AMID5                JUNCTION        3.37          5.148       12.852
  AMID6                JUNCTION        3.46          5.451       12.549
  BREAK                JUNCTION        3.27          4.393       13.607
  MIDTUNNEL            JUNCTION        3.34          4.997       13.003
  
  
  *********************
  Node Flooding Summary
  *********************
  
  No nodes were flooded.
  
  
  **********************
  Storage Volume Summary
  **********************
  
  ------------------------------------------------------------------------------------------------
                         Average    Avg   Evap  Exfil     Maximum    Max    Time of Max    Maximum
                          Volume   Pcnt   Pcnt   Pcnt      Volume   Pcnt     Occurrence    Outflow
  Storage Unit           1000 mł   Full   Loss   Loss     1000 mł   Full    days hr:min        CMS
  ------------------------------------------------------------------------------------------------
  AST1                     0.017   21.5    0.0    0.0       0.026   32.0       0  00:56      1.063
  AST2                     0.022   27.0    0.0    0.0       0.030   38.0       0  00:55      0.662
  
  
  ***********************
  Outfall Loading Summary
  ***********************
  
  -----------------------------------------------------------
                         Flow       Avg       Max       Total
                         Freq      Flow      Flow      Volume
  Outfall Node           Pcnt       CMS       CMS    10^6 ltr
  -----------------------------------------------------------
  A2                    61.50     0.485     0.492       5.453
  A9                    96.17     0.419     0.513       6.525
  -----------------------------------------------------------
  System                78.84     0.904     1.005      11.979
  
  
  ********************
  Link Flow Summary
  ********************
  
  -----------------------------------------------------------------------------
                                 Maximum  Time of Max   Maximum    Max/    Max/
                                  |Flow|   Occurrence   |Veloc|    Full    Full
  Link                 Type          CMS  days hr:min     m/sec    Flow   Depth
  -----------------------------------------------------------------------------
  AIN                  CONDUIT     1.000     0  00:42      2.06    0.68    0.59
  AOUT                 CONDUIT     0.492     0  00:56      3.34    0.13    0.24
  ATUNNEL              CONDUIT     1.034     0  00:38      1.63    0.11    1.00
  CDT-11               CONDUIT     1.022     0  00:06      1.69    0.11    1.00
  CDT-13               CONDUIT     1.016     0  00:05      1.67    0.10    1.00
  CDT-15               CONDUIT     1.277     0  00:21      1.71    0.13    1.00
  CDT-17               CONDUIT     1.012     0  00:04      1.65    0.10    1.00
  CDT-19               CONDUIT     1.019     0  00:05      1.69    0.10    1.00
  CDT-21               CONDUIT     1.252     0  00:25      1.70    0.13    1.00
  CDT-23               CONDUIT     1.394     0  00:27      1.58    0.14    1.00
  DNLINK               CONDUIT     1.023     0  00:29      0.99    0.96    1.00
  UPLINK               CONDUIT     1.063     0  00:32      1.43    0.99    1.00
  AGATE                ORIFICE     0.513     0  00:55                      1.00
  
  
  ***************************
  Flow Classification Summary
  ***************************
  
  -------------------------------------------------------------------------------------
                      Adjusted    ---------- Fraction of Time in Flow Class ---------- 
                       /Actual         Up    Down  Sub   Sup   Up    Down  Norm  Inlet 
  Conduit               Length    Dry  Dry   Dry   Crit  Crit  Crit  Crit  Ltd   Ctrl  
  -------------------------------------------------------------------------------------
  AIN                     1.00   0.00  0.00  0.00  0.00  0.00  0.00  1.00  0.00  0.00
  AOUT                    1.00   0.22  0.00  0.00  0.00  0.78  0.00  0.00  0.01  0.00
  ATUNNEL                 1.00   0.00  0.00  0.00  1.00  0.00  0.00  0.00  0.03  0.00
  CDT-11                  1.00   0.01  0.00  0.00  0.99  0.00  0.00  0.00  0.01  0.00
  CDT-13                  1.00   0.00  0.00  0.00  0.99  0.00  0.00  0.00  0.02  0.00
  CDT-15                  1.00   0.01  0.00  0.00  0.98  0.00  0.00  0.00  0.00  0.00
  CDT-17                  1.00   0.00  0.00  0.00  0.99  0.00  0.00  0.00  0.02  0.00
  CDT-19                  1.00   0.01  0.00  0.00  0.99  0.00  0.00  0.00  0.01  0.00
  CDT-21                  1.00   0.01  0.00  0.00  0.98  0.00  0.00  0.00  0.01  0.00
  CDT-23                  1.00   0.02  0.00  0.00  0.98  0.00  0.00  0.00  0.00  0.00
  DNLINK                  1.00   0.02  0.00  0.00  0.98  0.00  0.00  0.00  0.00  0.00
  UPLINK                  1.00   0.00  0.00  0.00  1.00  0.00  0.00  0.00  0.00  0.00
  
  
  *************************
  Conduit Surcharge Summary
  *************************
  
  ----------------------------------------------------------------------------
                                                           Hours        Hours 
                         --------- Hours Full --------   Above Full   Capacity
  Conduit                Both Ends  Upstream  Dnstream   Normal Flow   Limited
  ----------------------------------------------------------------------------
  ATUNNEL                     3.27      3.27      3.27      0.01         0.01
  CDT-11                      3.34      3.34      3.37      0.01         0.01
  CDT-13                      3.29      3.29      3.31      0.01         0.01
  CDT-15                      3.42      3.42      3.46      0.01         0.01
  CDT-17                      3.27      3.27      3.29      0.01         0.01
  CDT-19                      3.31      3.31      3.34      0.01         0.01
  CDT-21                      3.37      3.37      3.42      0.01         0.01
  CDT-23                      3.46      3.46      3.51      0.01         0.01
  DNLINK                      3.51      3.51      3.51      0.01         1.09
  UPLINK                      3.27      3.27      3.27      0.01         0.06
  

  Analysis begun on:  Fri Mar  6 15:00:28 2026
  Analysis ended on:  Fri Mar  6 15:00:28 2026
  Total elapsed time: < 1 sec