
  EPA STORM WATER MANAGEMENT MODEL - VERSION 5.2 (Build 5.2.4)
  ------------------------------------------------------------

  Example 1 of Extran Manual 
  
  ****************
  Analysis Options
  ****************
  Flow Units ............... CFS
  Process Models:
    Rainfall/Runoff ........ NO
    RDII ................... NO
    Snowmelt ............... NO
    Groundwater ............ NO
    Flow Routing ........... YES
    Ponding Allowed ........ NO
    Water Quality .......... NO
  Flow Routing Method ...... DYNWAVE
  Surcharge Method ......... EXTRAN
  Starting Date ............ 01/01/2002 00:00:00
  Ending Date .............. 01/01/2052 08:00:00
  Antecedent Dry Days ...... 0.0
  Report Time Step ......... 01:00:00
  Routing Time Step ........ 60.00 sec
  Variable Time Step ....... NO
  Maximum Trials ........... 4
  Number of Threads ........ 1
  Head Tolerance ........... 0.005000 ft
  
  
  **************************        Volume        Volume
  Flow Routing Continuity        acre-feet      10^6 gal
  **************************     ---------     ---------
  Dry Weather Inflow .......         0.000         0.000
  Wet Weather Inflow .......         0.000         0.000
  Groundwater Inflow .......         0.000         0.000
  RDII Inflow ..............         0.000         0.000
  External Inflow ..........   5071007.483   1652463.548
  External Outflow .........   4438457.877   1446337.809
  Flooding Loss ............    632543.194    206123.650
  Evaporation Loss .........         0.000         0.000
  Exfiltration Loss ........         0.000         0.000
  Initial Stored Volume ....         0.000         0.000
  Final Stored Volume ......         8.793         2.865
  Continuity Error (%) .....        -0.000
  
  
  ********************************
  Highest Flow Instability Indexes
  ********************************
  All links are stable.
  
  
  *********************************
  Most Frequent Nonconverging Nodes
  *********************************
  Convergence obtained at all time steps.
  
  
  *************************
  Routing Time Step Summary
  *************************
  Minimum Time Step           :    60.00 sec
  Average Time Step           :    60.00 sec
  Maximum Time Step           :    60.00 sec
  % of Time in Steady State   :     0.00
  Average Iterations per Step :     2.00
  % of Steps Not Converging   :     0.00
  
  
  ******************
  Node Depth Summary
  ******************
  
  ---------------------------------------------------------------------------------
                                 Average  Maximum  Maximum  Time of Max    Reported
                                   Depth    Depth      HGL   Occurrence   Max Depth
  Node                 Type         Feet     Feet     Feet  days hr:min        Feet
  ---------------------------------------------------------------------------------
  80408                JUNCTION    12.75    13.33   137.93     0  00:25       12.75
  80608                JUNCTION    16.70    16.70   135.00     0  00:25       16.70
  81009                JUNCTION     2.62     4.50   132.70     0  00:01        2.62
  81309                JUNCTION     3.00     3.22   120.72     0  00:33        3.06
  82309                JUNCTION    21.68    22.26   134.56     0  00:25       21.69
  10309                JUNCTION     2.76     2.77   104.37     0  01:18        2.76
  15009                JUNCTION     2.44     2.47   113.97     0  01:03        2.47
  16009                JUNCTION     2.95     2.95   104.95     0  01:12        2.95
  16109                JUNCTION     2.97     2.97   105.77     0  01:19        2.97
  10208                OUTFALL      2.53     2.54    92.44     0  01:19        2.53
  
  
  *******************
  Node Inflow Summary
  *******************
  
  -------------------------------------------------------------------------------------------------
                                  Maximum  Maximum                  Lateral       Total        Flow
                                  Lateral    Total  Time of Max      Inflow      Inflow     Balance
                                   Inflow   Inflow   Occurrence      Volume      Volume       Error
  Node                 Type           CFS      CFS  days hr:min    10^6 gal    10^6 gal     Percent
  -------------------------------------------------------------------------------------------------
  80408                JUNCTION     45.00    45.00     0  00:01    5.31e+05    5.31e+05      -0.000
  80608                JUNCTION      0.00   159.39     0  00:01           0    5.31e+05       0.000
  81009                JUNCTION     50.00    50.00     0  00:01     5.9e+05     5.9e+05      -0.000
  81309                JUNCTION      0.00    71.79     0  00:01           0     5.9e+05       0.000
  82309                JUNCTION     45.00    92.20     0  00:10    5.31e+05    8.56e+05       0.000
  10309                JUNCTION      0.00   123.55     0  01:10           0    1.45e+06       0.000
  15009                JUNCTION      0.00    52.39     0  00:43           0     5.9e+05       0.000
  16009                JUNCTION      0.00   123.62     0  01:06           0    1.45e+06       0.000
  16109                JUNCTION      0.00    72.55     0  01:19           0    8.56e+05       0.000
  10208                OUTFALL       0.00   123.40     0  01:19           0    1.45e+06       0.000
  
  
  **********************
  Node Surcharge Summary
  **********************
  
  Surcharging occurs when water rises above the top of the highest conduit.
  ---------------------------------------------------------------------
                                               Max. Height   Min. Depth
                                   Hours       Above Crown    Below Rim
  Node                 Type      Surcharged           Feet         Feet
  ---------------------------------------------------------------------
  80408                JUNCTION   438295.67          9.326        0.074
  80608                JUNCTION   438295.72         12.700        0.000
  81009                JUNCTION        0.02          0.000        4.300
  82309                JUNCTION   438295.77         16.064       20.436
  
  
  *********************
  Node Flooding Summary
  *********************
  
  Flooding refers to all water that overflows a node, whether it ponds or not.
  --------------------------------------------------------------------------
                                                             Total   Maximum
                                 Maximum   Time of Max       Flood    Ponded
                        Hours       Rate    Occurrence      Volume     Depth
  Node                 Flooded       CFS   days hr:min    10^6 gal      Feet
  --------------------------------------------------------------------------
  80608                438295.60     20.73      0  00:27  206108.346     0.000
  
  
  ***********************
  Outfall Loading Summary
  ***********************
  
  -----------------------------------------------------------
                         Flow       Avg       Max       Total
                         Freq      Flow      Flow      Volume
  Outfall Node           Pcnt       CFS       CFS    10^6 gal
  -----------------------------------------------------------
  10208                100.00    122.54    123.40 1446230.394
  -----------------------------------------------------------
  System               100.00    122.54    123.40 1446230.394
  
  
  ********************
  Link Flow Summary
  ********************
  
  -----------------------------------------------------------------------------
                                 Maximum  Time of Max   Maximum    Max/    Max/
                                  |Flow|   Occurrence   |Veloc|    Full    Full
  Link                 Type          CFS  days hr:min    ft/sec    Flow   Depth
  -----------------------------------------------------------------------------
  8040                 CONDUIT     89.31     0  00:01     11.46    1.21    1.00
  8060                 CONDUIT     70.07     0  00:01      8.99    1.32    1.00
  8100                 CONDUIT     71.79     0  00:01      8.72    0.92    0.65
  8130                 CONDUIT     52.39     0  00:43      6.12    0.74    0.62
  1030                 CONDUIT    123.40     0  01:19      5.85    0.04    0.29
  1570                 CONDUIT     51.18     0  01:04      4.39    0.41    0.49
  1600                 CONDUIT     72.56     0  01:28      5.36    0.49    0.49
  1630                 CONDUIT    123.55     0  01:10      6.02    0.05    0.32
  1602                 CONDUIT     72.55     0  01:19      5.51    1.67    0.80
  
  
  ***************************
  Flow Classification Summary
  ***************************
  
  -------------------------------------------------------------------------------------
                      Adjusted    ---------- Fraction of Time in Flow Class ---------- 
                       /Actual         Up    Down  Sub   Sup   Up    Down  Norm  Inlet 
  Conduit               Length    Dry  Dry   Dry   Crit  Crit  Crit  Crit  Ltd   Ctrl  
  -------------------------------------------------------------------------------------
  8040                    1.00   0.00  0.00  0.00  1.00  0.00  0.00  0.00  0.00  0.00
  8060                    1.00   0.00  0.00  0.00  1.00  0.00  0.00  0.00  0.00  0.00
  8100                    1.00   0.00  0.00  0.00  1.00  0.00  0.00  0.00  1.00  0.00
  8130                    1.00   0.00  0.00  0.00  1.00  0.00  0.00  0.00  0.00  0.00
  1030                    1.00   0.00  0.00  0.00  1.00  0.00  0.00  0.00  0.00  0.00
  1570                    1.00   0.00  0.00  0.00  1.00  0.00  0.00  0.00  1.00  0.00
  1600                    1.00   0.00  0.00  0.00  1.00  0.00  0.00  0.00  0.00  0.00
  1630                    1.44   0.00  0.00  0.00  1.00  0.00  0.00  0.00  0.00  0.00
  1602                    1.00   0.00  0.00  0.00  1.00  0.00  0.00  0.00  0.00  0.00
  
  
  *************************
  Conduit Surcharge Summary
  *************************
  
  ----------------------------------------------------------------------------
                                                           Hours        Hours 
                         --------- Hours Full --------   Above Full   Capacity
  Conduit                Both Ends  Upstream  Dnstream   Normal Flow   Limited
  ----------------------------------------------------------------------------
  8040                    438295.65  438295.67  438295.70      0.03         0.01
  8060                    438295.70  438295.70  438295.77      0.02         0.01
  8100                        0.01      0.02      0.01      0.01         0.01
  1602                        0.01  438295.85      0.01  438295.77         0.01
  

  Analysis begun on:  Fri Mar  6 14:58:05 2026
  Analysis ended on:  Fri Mar  6 15:00:28 2026
  Total elapsed time: 00:02:23