
  EPA STORM WATER MANAGEMENT MODEL - VERSION 5.2 (Build 5.2.4)
  ------------------------------------------------------------

  
  *************
  Element Count
  *************
  Number of rain gages ...... 0
  Number of subcatchments ... 0
  Number of nodes ........... 28
  Number of links ........... 21
  Number of pollutants ...... 0
  Number of land uses ....... 0
  
  
  ************
  Node Summary
  ************
                                           Invert      Max.    Ponded    External
  Name                 Type                 Elev.     Depth      Area    Inflow  
  -------------------------------------------------------------------------------
  Node_1               JUNCTION             13.00     17.00       0.0    Yes
  Node_2               JUNCTION             12.00     18.00       0.0
  Node_3               JUNCTION             11.00     19.00       0.0
  Node_9               JUNCTION             13.00     17.00       0.0    Yes
  Node_10              JUNCTION             12.00     18.00       0.0
  Node_11              JUNCTION             11.00     19.00       0.0
  Node_45              JUNCTION             12.00     18.00       0.0
  Node_46              JUNCTION             11.00     19.00       0.0
  Node_48              JUNCTION             13.00     17.00       0.0    Yes
  Node_49              JUNCTION             20.00     10.00       0.0    Yes
  Node_50              JUNCTION             12.00     18.00       0.0
  Node_52              JUNCTION             19.00     11.00       0.0
  Node_17              JUNCTION             13.00     17.00       0.0    Yes
  Node_18              JUNCTION             12.00     18.00       0.0
  Node_19              JUNCTION             11.00     19.00       0.0
  Node_54              JUNCTION             12.00     18.00       0.0
  Node_55              JUNCTION              9.50     20.50       0.0
  Node_58              JUNCTION             13.00     17.00       0.0    Yes
  Node_60              JUNCTION             12.00    118.00       0.0
  Node_61              JUNCTION             11.00    119.00       0.0
  Node_63              JUNCTION             13.00    117.00       0.0    Yes
  Node_4               OUTFALL              10.00      0.75       0.0
  Node_12              OUTFALL              10.00      1.50       0.0
  Node_47              OUTFALL              10.00      1.50       0.0
  Node_51              OUTFALL              10.00      1.50       0.0
  Node_20              OUTFALL              10.00      1.50       0.0
  Node_56              OUTFALL               8.50      1.50       0.0
  Node_62              OUTFALL              10.00      1.50       0.0
  
  
  ************
  Link Summary
  ************
  Name             From Node        To Node          Type            Length    %Slope Roughness
  ---------------------------------------------------------------------------------------------
  Node_1.1         Node_1           Node_2           CONDUIT          500.0    0.2000    0.0120
  Node_2.1         Node_2           Node_3           CONDUIT          500.0    0.2000    0.0120
  Node_3.1         Node_3           Node_4           CONDUIT          500.0    0.2000    0.0120
  Node_9.1         Node_9           Node_10          CONDUIT          500.0    0.2000    0.0120
  Node_10.1        Node_10          Node_11          CONDUIT          500.0    0.2000    0.0120
  Node_11.1        Node_11          Node_12          CONDUIT          500.0    0.2000    0.0120
  Node_17.1        Node_17          Node_18          CONDUIT          500.0    0.2000    0.0120
  Node_18.1        Node_18          Node_19          CONDUIT          500.0    0.2000    0.0120
  Node_19.1        Node_19          Node_20          CONDUIT          500.0    0.2000    0.0120
  Node_48.1        Node_48          Node_45          CONDUIT          500.0    0.2000    0.0120
  Node_45.1        Node_45          Node_46          CONDUIT          500.0    0.2000    0.0120
  Node_46.1        Node_46          Node_47          CONDUIT          500.0    0.2000    0.0120
  Node_50.1        Node_50          Node_51          CONDUIT           50.0    4.0032    0.0120
  Node_49.1        Node_49          Node_52          CONDUIT          100.0    1.0001    0.0120
  Node_52.1        Node_52          Node_50          CONDUIT           50.0   14.1393    0.0120
  Node_54.1        Node_54          Node_55          CONDUIT          500.0    0.2000    0.0120
  Node_55.1        Node_55          Node_56          CONDUIT          500.0    0.2000    0.0120
  Node_58.1        Node_58          Node_54          CONDUIT          500.0    0.2000    0.0120
  Node_60.1        Node_60          Node_61          CONDUIT          500.0    0.2000    0.0120
  Node_61.1        Node_61          Node_62          CONDUIT          500.0    0.2000    0.0120
  Node_63.1        Node_63          Node_60          CONDUIT          500.0    0.2000    0.0120
  
  
  *********************
  Cross Section Summary
  *********************
                                        Full     Full     Hyd.     Max.   No. of     Full
  Conduit          Shape               Depth     Area     Rad.    Width  Barrels     Flow
  ---------------------------------------------------------------------------------------
  Node_1.1         CIRCULAR             1.50     1.77     0.38     1.50        1     5.09
  Node_2.1         CIRCULAR             1.50     1.77     0.38     1.50        1     5.09
  Node_3.1         CIRCULAR             0.75     0.44     0.19     0.75        1     0.80
  Node_9.1         CIRCULAR             1.50     1.77     0.38     1.50        1     5.09
  Node_10.1        CIRCULAR             1.50     1.77     0.38     1.50        1     5.09
  Node_11.1        CIRCULAR             1.50     1.77     0.38     1.50        1     5.09
  Node_17.1        CIRCULAR             1.50     1.77     0.38     1.50        1     5.09
  Node_18.1        CIRCULAR             1.50     1.77     0.38     1.50        1     5.09
  Node_19.1        CIRCULAR             1.50     1.77     0.38     1.50        1     5.09
  Node_48.1        CIRCULAR             1.50     1.77     0.38     1.50        1     5.09
  Node_45.1        CIRCULAR             1.50     1.77     0.38     1.50        1     5.09
  Node_46.1        CIRCULAR             1.50     1.77     0.38     1.50        1     5.09
  Node_50.1        CIRCULAR             1.50     1.77     0.38     1.50        1    22.77
  Node_49.1        CIRCULAR             1.50     1.77     0.38     1.50        1    11.38
  Node_52.1        CIRCULAR             1.50     1.77     0.38     1.50        1    42.79
  Node_54.1        CIRCULAR             1.50     1.77     0.38     1.50        1     5.09
  Node_55.1        CIRCULAR             1.50     1.77     0.38     1.50        1     5.09
  Node_58.1        CIRCULAR             1.50     1.77     0.38     1.50        1     5.09
  Node_60.1        CIRCULAR             1.25     1.23     0.31     1.25        1     3.13
  Node_61.1        CIRCULAR             1.50     1.77     0.38     1.50        1     5.09
  Node_63.1        CIRCULAR             1.25     1.23     0.31     1.25        1     3.13
  
  
  ****************
  Analysis Options
  ****************
  Flow Units ............... CFS
  Process Models:
    Rainfall/Runoff ........ NO
    RDII ................... NO
    Snowmelt ............... NO
    Groundwater ............ NO
    Flow Routing ........... YES
    Ponding Allowed ........ YES
    Water Quality .......... NO
  Flow Routing Method ...... DYNWAVE
  Surcharge Method ......... EXTRAN
  Starting Date ............ 12/25/2014 00:00:00
  Ending Date .............. 12/25/2014 06:00:00
  Antecedent Dry Days ...... 0.0
  Report Time Step ......... 00:15:00
  Routing Time Step ........ 1.00 sec
  Variable Time Step ....... YES
  Maximum Trials ........... 8
  Number of Threads ........ 1
  Head Tolerance ........... 0.001000 ft
  
  
  **************************        Volume        Volume
  Flow Routing Continuity        acre-feet      10^6 gal
  **************************     ---------     ---------
  Dry Weather Inflow .......         0.000         0.000
  Wet Weather Inflow .......         0.000         0.000
  Groundwater Inflow .......         0.000         0.000
  RDII Inflow ..............         0.000         0.000
  External Inflow ..........         6.942         2.262
  External Outflow .........         6.770         2.206
  Flooding Loss ............         0.000         0.000
  Evaporation Loss .........         0.000         0.000
  Exfiltration Loss ........         0.000         0.000
  Initial Stored Volume ....         0.000         0.000
  Final Stored Volume ......         0.187         0.061
  Continuity Error (%) .....        -0.215
  
  
  *************************
  Highest Continuity Errors
  *************************
  Node Node_2 (2.10%)
  Node Node_54 (1.67%)
  Node Node_3 (1.66%)
  Node Node_46 (1.13%)
  Node Node_19 (1.13%)
  
  
  ***************************
  Time-Step Critical Elements
  ***************************
  None
  
  
  ********************************
  Highest Flow Instability Indexes
  ********************************
  All links are stable.
  
  
  *********************************
  Most Frequent Nonconverging Nodes
  *********************************
  Node Node_4 (1.87%)
  Node Node_12 (1.87%)
  Node Node_47 (1.87%)
  Node Node_51 (1.87%)
  Node Node_20 (1.87%)
  
  
  *************************
  Routing Time Step Summary
  *************************
  Minimum Time Step           :     0.50 sec
  Average Time Step           :     1.00 sec
  Maximum Time Step           :     1.00 sec
  % of Time in Steady State   :     0.00
  Average Iterations per Step :     2.14
  % of Steps Not Converging   :     1.87
  Time Step Frequencies       :
      1.000 -  0.871 sec      :   100.00 %
      0.871 -  0.758 sec      :     0.00 %
      0.758 -  0.660 sec      :     0.00 %
      0.660 -  0.574 sec      :     0.00 %
      0.574 -  0.500 sec      :     0.00 %
  
  
  ******************
  Node Depth Summary
  ******************
  
  ---------------------------------------------------------------------------------
                                 Average  Maximum  Maximum  Time of Max    Reported
                                   Depth    Depth      HGL   Occurrence   Max Depth
  Node                 Type         Feet     Feet     Feet  days hr:min        Feet
  ---------------------------------------------------------------------------------
  Node_1               JUNCTION     4.74    14.30    27.30     0  00:28        5.08
  Node_2               JUNCTION     5.48    13.97    25.97     0  00:28        5.87
  Node_3               JUNCTION     6.24    12.85    23.85     0  00:28        6.65
  Node_9               JUNCTION     0.73     0.80    13.80     0  00:03        0.73
  Node_10              JUNCTION     0.68     0.76    12.76     0  00:10        0.72
  Node_11              JUNCTION     0.77     0.80    11.80     0  00:19        0.79
  Node_45              JUNCTION     0.68     0.76    12.76     0  00:10        0.72
  Node_46              JUNCTION     0.77     0.80    11.80     0  00:19        0.79
  Node_48              JUNCTION     0.73     0.80    13.80     0  00:03        0.73
  Node_49              JUNCTION     1.06     1.15    21.15     0  00:01        1.06
  Node_50              JUNCTION     0.55     0.58    12.58     0  00:01        0.55
  Node_52              JUNCTION     0.32     0.35    19.35     0  00:01        0.32
  Node_17              JUNCTION     0.73     0.80    13.80     0  00:03        0.73
  Node_18              JUNCTION     0.68     0.76    12.76     0  00:10        0.72
  Node_19              JUNCTION     0.77     0.80    11.80     0  00:19        0.79
  Node_54              JUNCTION     0.78     0.79    12.79     0  01:10        0.79
  Node_55              JUNCTION     0.77     0.79    10.29     0  01:13        0.79
  Node_58              JUNCTION     0.68     0.84    13.84     0  00:03        0.70
  Node_60              JUNCTION     0.80     0.87    12.87     0  00:10        0.85
  Node_61              JUNCTION     0.77     0.80    11.80     0  00:19        0.79
  Node_63              JUNCTION     0.80     0.93    13.93     0  00:03        0.80
  Node_4               OUTFALL      0.62     0.66    10.66     0  00:28        0.64
  Node_12              OUTFALL      0.52     0.54    10.54     0  00:19        0.53
  Node_47              OUTFALL      0.52     0.54    10.54     0  00:19        0.53
  Node_51              OUTFALL      0.30     0.31    10.31     0  00:01        0.30
  Node_20              OUTFALL      0.52     0.54    10.54     0  00:19        0.53
  Node_56              OUTFALL      0.52     0.53     9.03     0  01:13        0.53
  Node_62              OUTFALL      0.52     0.54    10.54     0  00:19        0.53
  
  
  *******************
  Node Inflow Summary
  *******************
  
  -------------------------------------------------------------------------------------------------
                                  Maximum  Maximum                  Lateral       Total        Flow
                                  Lateral    Total  Time of Max      Inflow      Inflow     Balance
                                   Inflow   Inflow   Occurrence      Volume      Volume       Error
  Node                 Type           CFS      CFS  days hr:min    10^6 gal    10^6 gal     Percent
  -------------------------------------------------------------------------------------------------
  Node_1               JUNCTION      2.00     2.00     0  00:00       0.323       0.323       0.934
  Node_2               JUNCTION      0.00     2.18     0  00:16           0        0.32       2.149
  Node_3               JUNCTION      0.00     2.31     0  00:10           0       0.313       1.686
  Node_9               JUNCTION      2.00     2.00     0  00:00       0.323       0.323       0.443
  Node_10              JUNCTION      0.00     2.13     0  00:06           0       0.322       0.926
  Node_11              JUNCTION      0.00     2.14     0  00:13           0       0.319       1.146
  Node_45              JUNCTION      0.00     2.13     0  00:06           0       0.322       0.926
  Node_46              JUNCTION      0.00     2.14     0  00:13           0       0.319       1.146
  Node_48              JUNCTION      2.00     2.00     0  00:00       0.323       0.323       0.443
  Node_49              JUNCTION      2.00     2.00     0  00:00       0.323       0.323       0.144
  Node_50              JUNCTION      0.00     2.22     0  00:01           0       0.322       0.068
  Node_52              JUNCTION      0.00     2.19     0  00:01           0       0.323       0.056
  Node_17              JUNCTION      2.00     2.00     0  00:00       0.323       0.323       0.443
  Node_18              JUNCTION      0.00     2.13     0  00:06           0       0.322       0.926
  Node_19              JUNCTION      0.00     2.14     0  00:13           0       0.319       1.146
  Node_54              JUNCTION      0.00     2.10     0  00:08           0       0.322       1.699
  Node_55              JUNCTION      0.00     2.00     0  01:10           0       0.316       0.545
  Node_58              JUNCTION      2.00     2.00     0  00:00       0.323       0.323       0.398
  Node_60              JUNCTION      0.00     2.14     0  00:06           0       0.322       0.996
  Node_61              JUNCTION      0.00     2.09     0  00:13           0       0.319       1.062
  Node_63              JUNCTION      2.00     2.00     0  00:00       0.323       0.323       0.445
  Node_4               OUTFALL       0.00     2.18     0  00:28           0       0.308       0.000
  Node_12              OUTFALL       0.00     2.03     0  00:19           0       0.315       0.000
  Node_47              OUTFALL       0.00     2.03     0  00:19           0       0.315       0.000
  Node_51              OUTFALL       0.00     2.13     0  00:01           0       0.322       0.000
  Node_20              OUTFALL       0.00     2.03     0  00:19           0       0.315       0.000
  Node_56              OUTFALL       0.00     2.00     0  01:13           0       0.315       0.000
  Node_62              OUTFALL       0.00     2.02     0  00:19           0       0.315       0.000
  
  
  **********************
  Node Surcharge Summary
  **********************
  
  Surcharging occurs when water rises above the top of the highest conduit.
  ---------------------------------------------------------------------
                                               Max. Height   Min. Depth
                                   Hours       Above Crown    Below Rim
  Node                 Type      Surcharged           Feet         Feet
  ---------------------------------------------------------------------
  Node_1               JUNCTION        5.52         12.805        2.695
  Node_2               JUNCTION        5.62         12.465        4.035
  Node_3               JUNCTION        5.78         11.351        6.149
  
  
  *********************
  Node Flooding Summary
  *********************
  
  No nodes were flooded.
  
  
  ***********************
  Outfall Loading Summary
  ***********************
  
  -----------------------------------------------------------
                         Flow       Avg       Max       Total
                         Freq      Flow      Flow      Volume
  Outfall Node           Pcnt       CFS       CFS    10^6 gal
  -----------------------------------------------------------
  Node_4                99.15      1.92      2.18       0.308
  Node_12               99.17      1.97      2.03       0.315
  Node_47               99.17      1.97      2.03       0.315
  Node_51               99.91      2.00      2.13       0.322
  Node_20               99.17      1.97      2.03       0.315
  Node_56               99.31      1.96      2.00       0.315
  Node_62               99.16      1.97      2.02       0.315
  -----------------------------------------------------------
  System                99.29     13.75     14.18       2.206
  
  
  ********************
  Link Flow Summary
  ********************
  
  -----------------------------------------------------------------------------
                                 Maximum  Time of Max   Maximum    Max/    Max/
                                  |Flow|   Occurrence   |Veloc|    Full    Full
  Link                 Type          CFS  days hr:min    ft/sec    Flow   Depth
  -----------------------------------------------------------------------------
  Node_1.1             CONDUIT      2.18     0  00:16      3.38    0.43    1.00
  Node_2.1             CONDUIT      2.31     0  00:10      2.89    0.45    1.00
  Node_3.1             CONDUIT      2.18     0  00:28      5.05    2.72    0.94
  Node_9.1             CONDUIT      2.13     0  00:06      3.38    0.42    0.49
  Node_10.1            CONDUIT      2.14     0  00:13      2.97    0.42    0.50
  Node_11.1            CONDUIT      2.03     0  00:19      2.67    0.40    0.45
  Node_17.1            CONDUIT      2.13     0  00:06      3.38    0.42    0.49
  Node_18.1            CONDUIT      2.14     0  00:13      2.97    0.42    0.50
  Node_19.1            CONDUIT      2.03     0  00:19      2.67    0.40    0.45
  Node_48.1            CONDUIT      2.13     0  00:06      3.38    0.42    0.49
  Node_45.1            CONDUIT      2.14     0  00:13      2.97    0.42    0.50
  Node_46.1            CONDUIT      2.03     0  00:19      2.67    0.40    0.45
  Node_50.1            CONDUIT      2.13     0  00:01      4.88    0.09    0.30
  Node_49.1            CONDUIT      2.19     0  00:01      2.59    0.19    0.49
  Node_52.1            CONDUIT      2.22     0  00:01      6.03    0.05    0.30
  Node_54.1            CONDUIT      2.00     0  01:10      2.66    0.39    0.44
  Node_55.1            CONDUIT      2.00     0  01:13      2.66    0.39    0.44
  Node_58.1            CONDUIT      2.10     0  00:08      3.50    0.41    0.49
  Node_60.1            CONDUIT      2.09     0  00:13      2.98    0.67    0.65
  Node_61.1            CONDUIT      2.02     0  00:19      2.67    0.40    0.44
  Node_63.1            CONDUIT      2.14     0  00:06      3.04    0.68    0.67
  
  
  ***************************
  Flow Classification Summary
  ***************************
  
  -------------------------------------------------------------------------------------
                      Adjusted    ---------- Fraction of Time in Flow Class ---------- 
                       /Actual         Up    Down  Sub   Sup   Up    Down  Norm  Inlet 
  Conduit               Length    Dry  Dry   Dry   Crit  Crit  Crit  Crit  Ltd   Ctrl  
  -------------------------------------------------------------------------------------
  Node_1.1                1.00   0.00  0.00  0.00  1.00  0.00  0.00  0.00  0.01  0.00
  Node_2.1                1.00   0.00  0.00  0.00  0.99  0.01  0.00  0.00  0.01  0.00
  Node_3.1                1.00   0.00  0.00  0.00  1.00  0.00  0.00  0.00  0.00  0.00
  Node_9.1                1.00   0.00  0.00  0.00  1.00  0.00  0.00  0.00  0.00  0.00
  Node_10.1               1.00   0.00  0.00  0.00  0.99  0.01  0.00  0.00  0.00  0.00
  Node_11.1               1.00   0.00  0.00  0.00  1.00  0.00  0.00  0.00  0.00  0.00
  Node_17.1               1.00   0.00  0.00  0.00  1.00  0.00  0.00  0.00  0.00  0.00
  Node_18.1               1.00   0.00  0.00  0.00  0.99  0.01  0.00  0.00  0.00  0.00
  Node_19.1               1.00   0.00  0.00  0.00  1.00  0.00  0.00  0.00  0.00  0.00
  Node_48.1               1.00   0.00  0.00  0.00  1.00  0.00  0.00  0.00  0.00  0.00
  Node_45.1               1.00   0.00  0.00  0.00  0.99  0.01  0.00  0.00  0.00  0.00
  Node_46.1               1.00   0.00  0.00  0.00  1.00  0.00  0.00  0.00  0.00  0.00
  Node_50.1               1.00   0.00  0.00  0.00  0.00  1.00  0.00  0.00  0.00  0.00
  Node_49.1               1.00   0.00  0.00  0.00  1.00  0.00  0.00  0.00  0.00  0.00
  Node_52.1               1.00   0.00  0.00  0.00  0.00  1.00  0.00  0.00  0.00  0.00
  Node_54.1               1.00   0.00  0.00  0.00  0.00  0.00  0.00  1.00  0.00  0.00
  Node_55.1               1.00   0.00  0.00  0.00  1.00  0.00  0.00  0.00  0.00  0.00
  Node_58.1               1.00   0.00  0.00  0.00  1.00  0.00  0.00  0.00  0.00  0.00
  Node_60.1               1.00   0.00  0.00  0.00  1.00  0.00  0.00  0.00  0.00  0.00
  Node_61.1               1.00   0.00  0.00  0.00  1.00  0.00  0.00  0.00  0.00  0.00
  Node_63.1               1.00   0.00  0.00  0.00  1.00  0.00  0.00  0.00  0.00  0.00
  
  
  *************************
  Conduit Surcharge Summary
  *************************
  
  ----------------------------------------------------------------------------
                                                           Hours        Hours 
                         --------- Hours Full --------   Above Full   Capacity
  Conduit                Both Ends  Upstream  Dnstream   Normal Flow   Limited
  ----------------------------------------------------------------------------
  Node_1.1                    5.52      5.52      5.62      0.01         0.01
  Node_2.1                    5.62      5.62      5.78      0.01         0.01
  Node_3.1                    0.01      5.85      0.01      5.84         0.01
  

  Analysis begun on:  Fri Mar  6 15:00:28 2026
  Analysis ended on:  Fri Mar  6 15:00:28 2026
  Total elapsed time: < 1 sec