
  EPA STORM WATER MANAGEMENT MODEL - VERSION 5.2 (Build 5.2.4)
  ------------------------------------------------------------

  Scenario Run :  BASE 
  
  ****************
  Analysis Options
  ****************
  Flow Units ............... LPS
  Process Models:
    Rainfall/Runoff ........ NO
    RDII ................... NO
    Snowmelt ............... NO
    Groundwater ............ NO
    Flow Routing ........... YES
    Ponding Allowed ........ NO
    Water Quality .......... YES
  Flow Routing Method ...... DYNWAVE
  Surcharge Method ......... SLOT
  Starting Date ............ 01/01/2016 00:00:00
  Ending Date .............. 01/01/2016 12:00:00
  Antecedent Dry Days ...... 5.0
  Report Time Step ......... 00:01:00
  Routing Time Step ........ 1.00 sec
  Variable Time Step ....... YES
  Maximum Trials ........... 8
  Number of Threads ........ 1
  Head Tolerance ........... 0.000100 m
  
  
  *********************
  Control Actions Taken
  *********************

  
  **************************        Volume        Volume
  Flow Routing Continuity        hectare-m      10^6 ltr
  **************************     ---------     ---------
  Dry Weather Inflow .......         0.247         2.470
  Wet Weather Inflow .......         0.000         0.000
  Groundwater Inflow .......         0.000         0.000
  RDII Inflow ..............         0.000         0.000
  External Inflow ..........         0.000         0.000
  External Outflow .........         0.000         0.000
  Flooding Loss ............         0.109         1.095
  Evaporation Loss .........         0.000         0.000
  Exfiltration Loss ........         0.000         0.000
  Initial Stored Volume ....         0.000         0.000
  Final Stored Volume ......         0.130         1.301
  Continuity Error (%) .....         3.028
  
  
  **************************        TRACER
  Quality Routing Continuity            kg
  **************************    ----------
  Dry Weather Inflow .......       247.046
  Wet Weather Inflow .......         0.000
  Groundwater Inflow .......         0.000
  RDII Inflow ..............         0.000
  External Inflow ..........         0.000
  External Outflow .........         0.000
  Flooding Loss ............       109.477
  Exfiltration Loss ........         0.000
  Mass Reacted .............         0.000
  Initial Stored Mass ......         0.000
  Final Stored Mass ........       130.082
  Continuity Error (%) .....         3.030
  
  
  *************************
  Highest Continuity Errors
  *************************
  Node MC104 (31.76%)
  Node MC105 (12.64%)
  Node MC106 (9.36%)
  Node MC109 (7.10%)
  Node MC110 (6.74%)
  
  
  ***************************
  Time-Step Critical Elements
  ***************************
  None
  
  
  ********************************
  Highest Flow Instability Indexes
  ********************************
  Link MC110_MC109 (26)
  Link MC112_MC111 (12)
  Link MC106_MC105 (5)
  Link MC405_MC404 (5)
  Link MC404_MC403 (4)
  
  
  *********************************
  Most Frequent Nonconverging Nodes
  *********************************
  Convergence obtained at all time steps.
  
  
  *************************
  Routing Time Step Summary
  *************************
  Minimum Time Step           :     1.00 sec
  Average Time Step           :     1.00 sec
  Maximum Time Step           :     1.00 sec
  % of Time in Steady State   :     0.00
  Average Iterations per Step :     2.00
  % of Steps Not Converging   :     0.03
  Time Step Frequencies       :
      1.000 -  0.251 sec      :   100.00 %
      0.251 -  0.063 sec      :     0.00 %
      0.063 -  0.016 sec      :     0.00 %
      0.016 -  0.004 sec      :     0.00 %
      0.004 -  0.001 sec      :     0.00 %
  
  
  ******************
  Node Depth Summary
  ******************
  
  ---------------------------------------------------------------------------------
                                 Average  Maximum  Maximum  Time of Max    Reported
                                   Depth    Depth      HGL   Occurrence   Max Depth
  Node                 Type       Meters   Meters   Meters  days hr:min      Meters
  ---------------------------------------------------------------------------------
  OUTFALL_KAWANASTP2   OUTFALL      0.00     0.00     0.00     0  00:00        0.00
  JCT-12               STORAGE      6.07     6.49     5.49     0  06:34        6.49
  MC103                STORAGE      6.67     9.67     5.62     0  06:44        9.67
  MC104                STORAGE      3.84     6.37     5.62     0  06:44        6.37
  MC105                STORAGE      3.26     5.62     5.62     0  06:42        5.62
  MC106                STORAGE      2.96     5.24     5.64     0  06:42        5.24
  MC107                STORAGE      2.40     4.45     5.70     0  06:42        4.44
  MC108                STORAGE      2.09     3.98     5.73     0  06:42        3.98
  MC109                STORAGE      1.74     3.41     5.76     0  06:42        3.41
  MC110                STORAGE      0.59     1.40     5.90     0  06:42        1.40
  MC111                STORAGE      0.28     0.77     5.92     0  06:41        0.77
  MC112                STORAGE      0.06     0.06     6.46     0  10:15        0.06
  MC113                STORAGE      0.04     0.04     9.60     0  03:25        0.04
  MC140                STORAGE      0.04     0.04     7.71     0  00:07        0.04
  MC400                STORAGE      1.79     3.40     5.60     0  06:38        3.40
  MC401                STORAGE      1.36     2.62     5.62     0  06:50        2.62
  MC402                STORAGE      1.22     2.37     5.62     0  06:50        2.37
  MC403                STORAGE      1.09     2.14     5.63     0  06:50        2.14
  MC404                STORAGE      0.60     1.19     5.64     0  06:50        1.19
  MC405                STORAGE      0.14     0.21     5.66     0  06:51        0.21
  MC406                STORAGE      0.05     0.05     8.45     0  00:44        0.05
  MC407                STORAGE      0.05     0.05    14.24     0  00:21        0.05
  MC410                STORAGE      0.04     0.04     8.03     0  02:01        0.04
  MC500                STORAGE      0.05     0.05     6.45     0  00:33        0.05
  MC501                STORAGE      0.08     0.08     6.88     0  00:31        0.08
  MC502                STORAGE      0.07     0.07     7.67     0  00:25        0.07
  MC503                STORAGE      0.07     0.07     8.07     0  00:16        0.07
  MC504                STORAGE      0.04     0.04    10.13     0  02:12        0.04
  
  
  *******************
  Node Inflow Summary
  *******************
  
  -------------------------------------------------------------------------------------------------
                                  Maximum  Maximum                  Lateral       Total        Flow
                                  Lateral    Total  Time of Max      Inflow      Inflow     Balance
                                   Inflow   Inflow   Occurrence      Volume      Volume       Error
  Node                 Type           LPS      LPS  days hr:min    10^6 ltr    10^6 ltr     Percent
  -------------------------------------------------------------------------------------------------
  OUTFALL_KAWANASTP2   OUTFALL       0.00     0.00     0  00:00           0           0       0.000 ltr
  JCT-12               STORAGE       2.77    22.09     0  06:29        0.12       0.396       4.426
  MC103                STORAGE       2.77    62.75     0  04:13        0.12       0.719      52.081
  MC104                STORAGE       5.86   122.41     0  02:12       0.253       0.886      46.535
  MC105                STORAGE       0.00    74.28     0  03:06           0        1.22      14.471
  MC106                STORAGE       1.44    68.44     0  03:54      0.0621        0.95      10.331
  MC107                STORAGE       2.67    46.13     0  04:20       0.115       0.924       6.715
  MC108                STORAGE       0.00    65.29     0  04:43           0       0.838       5.643
  MC109                STORAGE       2.37    46.60     0  05:06       0.102        0.89       7.643
  MC110                STORAGE       0.00    20.66     0  06:08           0       0.367       7.225
  MC111                STORAGE       1.25    22.95     0  06:33       0.054       0.368       5.504
  MC112                STORAGE       2.27     4.55     0  03:25      0.0982       0.195       1.838
  MC113                STORAGE       2.27     2.27     0  00:00      0.0982      0.0982       1.225
  MC140                STORAGE       2.64     2.64     0  00:00       0.114       0.114       0.360
  MC400                STORAGE       1.73    59.22     0  04:53      0.0745        1.22       4.290
  MC401                STORAGE       0.00    52.93     0  05:28           0       0.766       3.780
  MC402                STORAGE       0.00    43.23     0  05:37           0       0.763       1.961
  MC403                STORAGE       3.00    49.39     0  05:44        0.13       0.789       5.641
  MC404                STORAGE       1.50    46.23     0  06:06      0.0648       0.675       5.735
  MC405                STORAGE       4.87    20.68     0  06:42        0.21       0.615       2.867
  MC406                STORAGE       2.23     6.71     0  00:27      0.0962       0.287       0.992
  MC407                STORAGE       4.45     4.45     0  00:00       0.192       0.192       0.908
  MC410                STORAGE       2.78     2.78     0  00:00        0.12        0.12       0.678
  MC500                STORAGE       0.00    10.37     0  00:31           0       0.438       0.243
  MC501                STORAGE       2.37    10.39     0  00:27       0.102        0.44       0.450
  MC502                STORAGE       0.00     8.04     0  00:21           0       0.341       0.701
  MC503                STORAGE       5.94     7.96     0  02:12       0.257       0.343       0.671
  MC504                STORAGE       2.01     2.01     0  00:00       0.087       0.087       0.784
  
  
  **********************
  Node Surcharge Summary
  **********************
  
  No nodes were surcharged.
  
  
  *********************
  Node Flooding Summary
  *********************
  
  Flooding refers to all water that overflows a node, whether it ponds or not.
  --------------------------------------------------------------------------
                                                             Total   Maximum
                                 Maximum   Time of Max       Flood    Ponded
                        Hours       Rate    Occurrence      Volume     Depth
  Node                 Flooded       LPS   days hr:min    10^6 ltr    Meters
  --------------------------------------------------------------------------
  JCT-12                  5.43     17.54      0  06:34       0.320     0.000
  MC400                   5.34     43.26      0  06:53       0.775     0.000
  
  
  **********************
  Storage Volume Summary
  **********************
  
  ------------------------------------------------------------------------------------------------
                         Average    Avg   Evap  Exfil     Maximum    Max    Time of Max    Maximum
                          Volume   Pcnt   Pcnt   Pcnt      Volume   Pcnt     Occurrence    Outflow
  Storage Unit           1000 mł   Full   Loss   Loss     1000 mł   Full    days hr:min        LPS
  ------------------------------------------------------------------------------------------------
  JCT-12                   0.006   93.6    0.0    0.0       0.006  100.0       0  06:34       3.01
  MC103                    0.084   67.2    0.0    0.0       0.122   97.4       0  06:44      53.81
  MC104                    0.004   57.8    0.0    0.0       0.006   95.8       0  06:44      57.18
  MC105                    0.003   57.8    0.0    0.0       0.006   99.5       0  06:42      76.71
  MC106                    0.003   54.6    0.0    0.0       0.005   96.7       0  06:42      39.21
  MC107                    0.002   42.2    0.0    0.0       0.004   78.1       0  06:42      36.80
  MC108                    0.002   38.1    0.0    0.0       0.004   72.6       0  06:42      32.05
  MC109                    0.002   36.4    0.0    0.0       0.003   71.5       0  06:42      30.44
  MC110                    0.001   13.0    0.0    0.0       0.001   30.8       0  06:42      14.24
  MC111                    0.000    9.8    0.0    0.0       0.001   26.7       0  06:41      11.58
  MC112                    0.000    1.7    0.0    0.0       0.000    1.8       0  10:15       5.20
  MC113                    0.000    1.9    0.0    0.0       0.000    1.9       0  03:25       2.27
  MC140                    0.000    1.8    0.0    0.0       0.000    1.8       0  00:07       2.75
  MC400                    0.002   52.6    0.0    0.0       0.003  100.0       0  06:38      32.17
  MC401                    0.001   51.1    0.0    0.0       0.003   98.4       0  06:50      29.91
  MC402                    0.001   44.1    0.0    0.0       0.002   85.9       0  06:50      29.07
  MC403                    0.001   46.4    0.0    0.0       0.002   90.6       0  06:50      28.85
  MC404                    0.001   31.2    0.0    0.0       0.001   61.9       0  06:50      18.22
  MC405                    0.000    7.6    0.0    0.0       0.000   11.6       0  06:51      16.31
  MC406                    0.000    3.6    0.0    0.0       0.000    3.6       0  00:44       6.68
  MC407                    0.000    2.4    0.0    0.0       0.000    2.4       0  00:21       4.48
  MC410                    0.000    2.0    0.0    0.0       0.000    2.0       0  02:01       2.78
  MC500                    0.000    3.3    0.0    0.0       0.000    3.3       0  00:33      10.36
  MC501                    0.000    5.0    0.0    0.0       0.000    5.1       0  00:31      10.37
  MC502                    0.000    3.6    0.0    0.0       0.000    3.7       0  00:25       8.02
  MC503                    0.000    3.6    0.0    0.0       0.000    3.7       0  00:16       8.04
  MC504                    0.000    1.8    0.0    0.0       0.000    1.8       0  02:12       2.01
  
  
  ***********************
  Outfall Loading Summary
  ***********************
  
  -------------------------------------------------------------------------
                         Flow       Avg       Max       Total         Total
                         Freq      Flow      Flow      Volume        TRACER
  Outfall Node           Pcnt       LPS       LPS    10^6 ltr            kg
  -------------------------------------------------------------------------
  OUTFALL_KAWANASTP2     0.00      0.00      0.00       0.000         0.000
  -------------------------------------------------------------------------
  System                 0.00      0.00      0.00       0.000         0.000
  
  
  ********************
  Link Flow Summary
  ********************
  
  -----------------------------------------------------------------------------
                                 Maximum  Time of Max   Maximum    Max/    Max/
                                  |Flow|   Occurrence   |Veloc|    Full    Full
  Link                 Type          LPS  days hr:min     m/sec    Flow   Depth
  -----------------------------------------------------------------------------
  CDT-23               CONDUIT     19.32     0  06:29      0.51    0.27    1.00
  MC104_MC103          CONDUIT     57.18     0  04:13      0.41    0.04    1.00
  MC105_MC104          CONDUIT     76.71     0  02:13      0.67    0.18    1.00
  MC106_MC105          CONDUIT     39.21     0  06:43      0.66    0.17    1.00
  MC107_MC106          CONDUIT     36.80     0  06:43      0.64    0.19    1.00
  MC108_MC107          CONDUIT     36.52     0  04:43      0.66    0.26    1.00
  MC109_MC108          CONDUIT     30.44     0  04:41      0.66    0.22    1.00
  MC110_MC109          CONDUIT     14.59     0  06:32      0.53    0.26    1.00
  MC111_MC110          CONDUIT     14.24     0  06:33      0.71    0.22    1.00
  MC112_MC111          CONDUIT      5.20     0  06:40      0.51    0.18    1.00
  MC113_MC112          CONDUIT      2.27     0  03:25      0.45    0.06    0.22
  MC140_MC111          CONDUIT      2.75     0  00:08      0.76    0.06    1.00
  MC400_MC105          CONDUIT     32.35     0  05:29      0.91    0.09    1.00
  MC401_MC400          CONDUIT     32.17     0  05:28      0.73    0.24    1.00
  MC402_MC401          CONDUIT     29.91     0  05:44      0.67    0.20    1.00
  MC403_MC402          CONDUIT     29.07     0  05:44      0.69    0.19    1.00
  MC404_MC403          CONDUIT     28.85     0  06:07      0.63    0.18    1.00
  MC405_MC404          CONDUIT     16.31     0  06:04      0.70    0.15    1.00
  MC406_MC405          CONDUIT      6.68     0  00:44      0.50    0.03    0.34
  MC407_MC406          CONDUIT      4.48     0  00:27      0.77    0.10    0.21
  MC410_MC405          CONDUIT      2.78     0  02:01      0.49    0.07    0.55
  MC500_MC109          CONDUIT     10.36     0  00:33      0.97    0.07    1.00
  MC501_MC500          CONDUIT     10.37     0  00:31      0.91    0.13    0.22
  MC502_MC501          CONDUIT      8.02     0  00:27      0.57    0.14    0.25
  MC503_MC502          CONDUIT      8.04     0  00:21      0.68    0.13    0.25
  MC504_MC503          CONDUIT      2.01     0  02:12      0.27    0.05    0.24
  
  
  ***************************
  Flow Classification Summary
  ***************************
  
  -------------------------------------------------------------------------------------
                      Adjusted    ---------- Fraction of Time in Flow Class ---------- 
                       /Actual         Up    Down  Sub   Sup   Up    Down  Norm  Inlet 
  Conduit               Length    Dry  Dry   Dry   Crit  Crit  Crit  Crit  Ltd   Ctrl  
  -------------------------------------------------------------------------------------
  CDT-23                  1.00   0.06  0.00  0.00  0.65  0.00  0.00  0.29  0.18  0.00
  MC104_MC103             1.00   0.00  0.00  0.00  0.99  0.01  0.00  0.00  0.16  0.00
  MC105_MC104             1.00   0.00  0.00  0.00  1.00  0.00  0.00  0.00  0.01  0.00
  MC106_MC105             1.00   0.00  0.00  0.00  0.99  0.01  0.00  0.00  0.02  0.00
  MC107_MC106             1.00   0.00  0.00  0.00  1.00  0.00  0.00  0.00  0.00  0.00
  MC108_MC107             1.00   0.00  0.00  0.00  1.00  0.00  0.00  0.00  0.02  0.00
  MC109_MC108             1.00   0.00  0.00  0.00  0.98  0.02  0.00  0.00  0.00  0.00
  MC110_MC109             1.00   0.00  0.00  0.00  1.00  0.00  0.00  0.00  0.10  0.00
  MC111_MC110             1.00   0.00  0.00  0.00  0.96  0.04  0.00  0.00  0.01  0.00
  MC112_MC111             1.00   0.00  0.00  0.00  1.00  0.00  0.00  0.00  0.49  0.00
  MC113_MC112             1.00   0.00  0.00  0.00  0.99  0.01  0.00  0.00  0.98  0.00
  MC140_MC111             1.00   0.00  0.00  0.00  0.98  0.02  0.00  0.00  0.99  0.00
  MC400_MC105             1.00   0.00  0.00  0.00  0.94  0.06  0.00  0.00  0.37  0.00
  MC401_MC400             1.00   0.00  0.00  0.00  1.00  0.00  0.00  0.00  0.02  0.00
  MC402_MC401             1.00   0.00  0.00  0.00  0.98  0.02  0.00  0.00  0.00  0.00
  MC403_MC402             1.00   0.00  0.00  0.00  0.99  0.01  0.00  0.00  0.00  0.00
  MC404_MC403             1.00   0.00  0.00  0.00  1.00  0.00  0.00  0.00  0.01  0.00
  MC405_MC404             1.00   0.00  0.00  0.00  0.98  0.02  0.00  0.00  0.02  0.00
  MC406_MC405             1.00   0.00  0.00  0.00  1.00  0.00  0.00  0.00  1.00  0.00
  MC407_MC406             1.00   0.00  0.00  0.00  0.00  1.00  0.00  0.00  0.00  0.00
  MC410_MC405             1.00   0.00  0.00  0.00  0.99  0.01  0.00  0.00  0.99  0.00
  MC500_MC109             1.00   0.00  0.00  0.00  0.96  0.04  0.00  0.00  1.00  0.00
  MC501_MC500             1.00   0.00  0.00  0.00  0.00  1.00  0.00  0.00  0.00  0.00
  MC502_MC501             1.00   0.00  0.00  0.00  1.00  0.00  0.00  0.00  0.01  0.00
  MC503_MC502             1.00   0.00  0.00  0.00  0.99  0.01  0.00  0.00  0.00  0.00
  MC504_MC503             1.00   0.00  0.00  0.00  1.00  0.00  0.00  0.00  1.00  0.00
  
  
  *************************
  Conduit Surcharge Summary
  *************************
  
  ----------------------------------------------------------------------------
                                                           Hours        Hours 
                         --------- Hours Full --------   Above Full   Capacity
  Conduit                Both Ends  Upstream  Dnstream   Normal Flow   Limited
  ----------------------------------------------------------------------------
  CDT-23                      5.44      5.44      7.56      0.01         0.01
  MC104_MC103                 9.00      9.00     10.46      0.01         0.01
  MC105_MC104                 8.10      8.10      9.11      0.01         0.01
  MC106_MC105                 7.97      7.97      8.41      0.01         0.01
  MC107_MC106                 7.41      7.41      7.97      0.01         0.01
  MC108_MC107                 7.19      7.19      7.44      0.01         0.01
  MC109_MC108                 6.69      6.69      7.19      0.01         0.01
  MC110_MC109                 5.71      5.71      6.80      0.01         0.01
  MC111_MC110                 5.38      5.38      5.71      0.01         0.01
  MC112_MC111                 0.01      0.01      5.42      0.01         0.01
  MC140_MC111                 0.01      0.01      5.42      0.01         0.01
  MC400_MC105                 6.80      6.80      8.50      0.01         0.01
  MC401_MC400                 6.41      6.41      6.80      0.01         0.01
  MC402_MC401                 6.28      6.28      6.41      0.01         0.01
  MC403_MC402                 6.14      6.14      6.28      0.01         0.01
  MC404_MC403                 5.71      5.71      6.14      0.01         0.01
  MC405_MC404                 0.01      0.01      5.76      0.01         0.01
  MC500_MC109                 0.01      0.01      6.80      0.01         0.01
  
  
  ***************************
  Link Pollutant Load Summary
  ***************************
  
  ----------------------------------
                              TRACER
  Link                            kg
  ----------------------------------
  CDT-23                      32.877
  MC104_MC103                 62.079
  MC105_MC104                 60.856
  MC106_MC105                 87.556
  MC107_MC106                 86.688
  MC108_MC107                 80.367
  MC109_MC108                 82.282
  MC110_MC109                 35.143
  MC111_MC110                 35.653
  MC112_MC111                 19.156
  MC113_MC112                  9.695
  MC140_MC111                 11.379
  MC400_MC105                 78.940
  MC401_MC400                 74.911
  MC402_MC401                 75.194
  MC403_MC402                 75.630
  MC404_MC403                 64.765
  MC405_MC404                 59.980
  MC406_MC405                 28.388
  MC407_MC406                 19.057
  MC410_MC405                 11.935
  MC500_MC109                 43.714
  MC501_MC500                 43.827
  MC502_MC501                 33.815
  MC503_MC502                 34.062
  MC504_MC503                  8.626
  

  Analysis begun on:  Fri Mar  6 15:00:29 2026
  Analysis ended on:  Fri Mar  6 15:00:29 2026
  Total elapsed time: < 1 sec