
  EPA STORM WATER MANAGEMENT MODEL - VERSION 5.2 (Build 5.2.4)
  ------------------------------------------------------------

  Model Imported from SWMM4  (!) 
  Some assumptions made with pipe sizes, 
  all pipes were circular. 
  
  ERROR 361: could not open external file used for Time Series Tides_CHS_15min_Sept-Feb_2009.
  WARNING 02: maximum depth increased for Node MH1021
  WARNING 02: maximum depth increased for Node MH10407
  WARNING 02: maximum depth increased for Node MH802
  WARNING 02: maximum depth increased for Node MH821_WL_Gauged
  WARNING 02: maximum depth increased for Node MH822
  WARNING 02: maximum depth increased for Node MH863
  WARNING 02: maximum depth increased for Node MH864
  WARNING 02: maximum depth increased for Node MH865
  WARNING 02: maximum depth increased for Node MH867
  WARNING 02: maximum depth increased for Node MH869
  WARNING 02: maximum depth increased for Node MH905
  WARNING 02: maximum depth increased for Node MH906
  WARNING 02: maximum depth increased for Node MH907
  WARNING 02: maximum depth increased for Node MH913
  WARNING 02: maximum depth increased for Node MH921
  WARNING 02: maximum depth increased for Node MH980-WL_Gauged
  WARNING 02: maximum depth increased for Node MH983
  WARNING 02: maximum depth increased for Node MHexisting_WL_Gauged
  WARNING 02: maximum depth increased for Node MHCSO-PierA5

  Analysis begun on:  Fri Mar  6 15:00:29 2026
  Analysis ended on:  Fri Mar  6 15:00:29 2026
  Total elapsed time: < 1 sec