
  EPA STORM WATER MANAGEMENT MODEL - VERSION 5.2 (Build 5.2.4)
  ------------------------------------------------------------

  Scenario Run :  BASE 
  WARNING 04: minimum elevation drop used for Conduit CDT-310
  WARNING 04: minimum elevation drop used for Conduit CDT-310-1
  WARNING 04: minimum elevation drop used for Conduit CDT-31A1D
  WARNING 04: minimum elevation drop used for Conduit CDT-31A2D
  WARNING 04: minimum elevation drop used for Conduit CDT-31A3D
  WARNING 04: minimum elevation drop used for Conduit CDT-31A4D
  WARNING 04: minimum elevation drop used for Conduit CDT-31A5D
  WARNING 04: minimum elevation drop used for Conduit CDT-31F2
  WARNING 04: minimum elevation drop used for Conduit CDT-31F21D
  WARNING 04: minimum elevation drop used for Conduit CDT-31F22
  WARNING 04: minimum elevation drop used for Conduit CDT-331AD
  WARNING 04: minimum elevation drop used for Conduit CDT-35
  WARNING 04: minimum elevation drop used for Conduit SGP37002000
  WARNING 04: minimum elevation drop used for Conduit SPI3010031A
  WARNING 04: minimum elevation drop used for Conduit SPI30100600
  WARNING 04: minimum elevation drop used for Conduit SPI30101300
  WARNING 04: minimum elevation drop used for Conduit SPI30101500
  WARNING 04: minimum elevation drop used for Conduit SPI30101600
  WARNING 04: minimum elevation drop used for Conduit SPI30101700
  WARNING 04: minimum elevation drop used for Conduit SPI30101800
  WARNING 04: minimum elevation drop used for Conduit SPI30101900
  WARNING 04: minimum elevation drop used for Conduit SPI30102000
  WARNING 04: minimum elevation drop used for Conduit SPI30102600
  WARNING 04: minimum elevation drop used for Conduit SPI30102700
  WARNING 04: minimum elevation drop used for Conduit SPI30102800
  WARNING 04: minimum elevation drop used for Conduit SPI30102900
  WARNING 04: minimum elevation drop used for Conduit SPI301031A1
  WARNING 04: minimum elevation drop used for Conduit SPI301031A4
  WARNING 04: minimum elevation drop used for Conduit SPI30109800
  WARNING 04: minimum elevation drop used for Conduit SPI30131F22
  WARNING 04: minimum elevation drop used for Conduit SPI30191200
  WARNING 04: minimum elevation drop used for Conduit SPI30191300
  WARNING 04: minimum elevation drop used for Conduit SPI30191600
  WARNING 04: minimum elevation drop used for Conduit SPI30192100
  WARNING 04: minimum elevation drop used for Conduit SPI30192200
  WARNING 04: minimum elevation drop used for Conduit SPI30192300
  WARNING 04: minimum elevation drop used for Conduit SPI30192500
  WARNING 04: minimum elevation drop used for Conduit SPI30192600
  WARNING 04: minimum elevation drop used for Conduit SPI30192800
  WARNING 04: minimum elevation drop used for Conduit SPI30193100
  WARNING 04: minimum elevation drop used for Conduit SPI30193200
  WARNING 04: minimum elevation drop used for Conduit SPI30193300
  WARNING 04: minimum elevation drop used for Conduit SPI301E5001
  WARNING 04: minimum elevation drop used for Conduit SPI301E5004
  WARNING 04: minimum elevation drop used for Conduit SPI301E5005
  WARNING 04: minimum elevation drop used for Conduit SPI301E5006
  WARNING 04: minimum elevation drop used for Conduit SPI301E5007
  WARNING 04: minimum elevation drop used for Conduit SPI301E5008
  WARNING 04: minimum elevation drop used for Conduit SPI301E5009
  WARNING 04: minimum elevation drop used for Conduit SPI301E5010
  WARNING 04: minimum elevation drop used for Conduit SPI301E5011
  WARNING 04: minimum elevation drop used for Conduit SPI301E5012
  WARNING 04: minimum elevation drop used for Conduit SPI301E5013
  WARNING 04: minimum elevation drop used for Conduit SPI301E5014
  WARNING 04: minimum elevation drop used for Conduit SPI301E5015
  WARNING 04: minimum elevation drop used for Conduit SPI301E5016
  WARNING 04: minimum elevation drop used for Conduit SPI301E5017
  WARNING 04: minimum elevation drop used for Conduit SPI301E5018
  WARNING 04: minimum elevation drop used for Conduit SPI301E5019
  WARNING 04: minimum elevation drop used for Conduit SPI301E5021
  
  ****************
  Analysis Options
  ****************
  Flow Units ............... GPM
  Process Models:
    Rainfall/Runoff ........ NO
    RDII ................... NO
    Snowmelt ............... NO
    Groundwater ............ NO
    Flow Routing ........... YES
    Ponding Allowed ........ NO
    Water Quality .......... NO
  Flow Routing Method ...... DYNWAVE
  Surcharge Method ......... EXTRAN
  Starting Date ............ 01/01/2002 00:00:00
  Ending Date .............. 01/02/2002 06:00:00
  Antecedent Dry Days ...... 5.0
  Report Time Step ......... 00:05:00
  Routing Time Step ........ 1.00 sec
  Variable Time Step ....... YES
  Maximum Trials ........... 8
  Number of Threads ........ 1
  Head Tolerance ........... 0.000100 ft
  
  
  **************************        Volume        Volume
  Flow Routing Continuity        acre-feet      10^6 gal
  **************************     ---------     ---------
  Dry Weather Inflow .......         1.003         0.327
  Wet Weather Inflow .......         0.000         0.000
  Groundwater Inflow .......         0.000         0.000
  RDII Inflow ..............         0.000         0.000
  External Inflow ..........         0.310         0.101
  External Outflow .........         1.393         0.454
  Flooding Loss ............         0.036         0.012
  Evaporation Loss .........         0.000         0.000
  Exfiltration Loss ........         0.000         0.000
  Initial Stored Volume ....         0.637         0.208
  Final Stored Volume ......         0.502         0.164
  Continuity Error (%) .....         0.985
  
  
  *************************
  Highest Continuity Errors
  *************************
  Node SMH30190700 (-24.52%)
  Node SMH30190600 (-19.57%)
  Node SMH30118370 (-18.63%)
  Node SMH30118160 (-17.66%)
  Node EAC_SMH30100006 (-14.66%)
  
  
  ***************************
  Time-Step Critical Elements
  ***************************
  Link SPI30104700 (1.29%)
  
  
  ********************************
  Highest Flow Instability Indexes
  ********************************
  Link CDT-31A4D (118)
  Link CDT-31A2D (48)
  Link CDT-31A3D (43)
  Link SPI301031A3 (31)
  Link SPI301031A4 (28)
  
  
  *********************************
  Most Frequent Nonconverging Nodes
  *********************************
  Node OFALL-310 (100.00%)
  Node JCT-31A1 (99.58%)
  Node JCT-31A1V (99.54%)
  Node SFT30193200 (99.45%)
  Node SFT30193100 (99.44%)
  
  
  *************************
  Routing Time Step Summary
  *************************
  Minimum Time Step           :     0.09 sec
  Average Time Step           :     0.99 sec
  Maximum Time Step           :     1.00 sec
  % of Time in Steady State   :     0.00
  Average Iterations per Step :     8.00
  % of Steps Not Converging   :   100.00
  Time Step Frequencies       :
      1.000 -  0.251 sec      :    99.99 %
      0.251 -  0.063 sec      :     0.01 %
      0.063 -  0.016 sec      :     0.00 %
      0.016 -  0.004 sec      :     0.00 %
      0.004 -  0.001 sec      :     0.00 %
  
  
  ******************
  Node Depth Summary
  ******************
  
  ---------------------------------------------------------------------------------
                                 Average  Maximum  Maximum  Time of Max    Reported
                                   Depth    Depth      HGL   Occurrence   Max Depth
  Node                 Type         Feet     Feet     Feet  days hr:min        Feet
  ---------------------------------------------------------------------------------
  EAC_SMH30100001      JUNCTION     0.17     2.84    -5.49     0  00:05        2.84
  EAC_SMH30100002      JUNCTION     0.03     3.55    -2.56     0  00:00        0.66
  EAC_SMH30100003      JUNCTION     0.03     4.83    -0.47     0  00:00        0.40
  EAC_SMH30100004      JUNCTION     0.03     6.89     2.58     0  00:00        0.36
  EAC_SMH30100005      JUNCTION     0.03     7.24     3.27     0  00:00        0.31
  EAC_SMH30100006      JUNCTION     0.03     7.52     5.18     0  00:00        0.26
  EAC_SMH30100011      JUNCTION     0.15     4.00    -3.53     0  00:00        2.33
  EAC_SMH30100012      JUNCTION     0.15     5.67    -1.00     0  00:00        1.85
  EAC_SMH30100013      JUNCTION     0.14     7.61     2.00     0  00:00        1.18
  EAC_SMH30100014      JUNCTION     0.13     7.71     2.35     0  00:00        0.99
  EAC_SMH30100015      JUNCTION     0.14     7.65     3.07     0  00:00        0.54
  EAC_SMH30100016      JUNCTION     0.14     7.35     3.63     0  00:00        0.42
  EAC_SMH30100019      JUNCTION     0.14     3.22     0.52     0  00:00        0.40
  JCT-10               JUNCTION    10.33    73.95    73.95     0  18:19       57.36
  JCT-310              JUNCTION     8.02    10.18    10.18     0  18:28        9.00
  JCT-310-1            JUNCTION     8.05    12.48    12.48     0  18:28       10.36
  JCT-310-2            JUNCTION     8.33    17.28    17.28     0  00:46       15.31
  JCT-312              JUNCTION     0.62   103.86   104.61     1  04:23        0.80
  JCT-31A              JUNCTION    16.79   108.00   108.00     0  00:00      108.00
  JCT-31A1             JUNCTION    12.68   108.00   108.00     0  00:00       77.13
  JCT-31A1V            JUNCTION    12.22    85.75    85.75     0  18:10       71.14
  JCT-31A2             JUNCTION     5.73    46.81    46.81     0  19:20       45.56
  JCT-31A2V            JUNCTION     5.46    50.74    50.74     0  19:20       46.16
  JCT-31A3             JUNCTION     5.55    54.12    54.12     0  00:00       36.30
  JCT-31A3V            JUNCTION     5.41    48.06    48.06     0  18:32       34.11
  JCT-31A4             JUNCTION     1.39    46.54    46.54     0  14:42        2.34
  JCT-31A4V            JUNCTION     1.38    49.00    49.00     0  19:18        2.88
  JCT-31A5             JUNCTION     0.13    51.97    51.97     0  00:00       40.67
  JCT-31A5V            JUNCTION     0.09    82.91    82.91     0  17:11       36.90
  JCT-31AV             JUNCTION    15.96   107.13   107.13     0  00:03      102.46
  JCT-31F1             JUNCTION     0.14    61.79    61.79     0  00:00        0.32
  JCT-31F2             JUNCTION     2.58    39.27    39.27     0  00:00       35.39
  JCT-31F21            JUNCTION     0.41    46.18    46.18     0  00:00       17.61
  JCT-31F21V           JUNCTION     0.22    46.20    46.20     0  00:00        2.77
  JCT-31F22            JUNCTION     0.63   104.12   104.12     0  00:00        9.73
  JCT-31F22V           JUNCTION     0.49    65.98    65.98     0  00:00        8.31
  JCT-31F2V            JUNCTION     1.30    38.57    38.57     0  00:00       31.81
  SFT30100200          JUNCTION     0.23     4.47     3.40     0  00:00        0.43
  SFT30100300          JUNCTION     0.21    23.86    23.28     0  00:00        0.49
  SFT30100400          JUNCTION     0.21    24.42    23.85     0  00:00        0.49
  SFT30100600          JUNCTION     0.21    46.72    46.72     0  00:00        0.54
  SFT30100700          JUNCTION     0.23    46.28    46.26     0  00:00        0.54
  SFT30100800          JUNCTION     0.21    46.68    46.68     0  00:00        0.54
  SFT30101000          JUNCTION     1.20    38.42    38.40     0  00:00       31.63
  SFT30101300          JUNCTION     0.41    60.55    60.55     0  00:00        0.66
  SFT30101500          JUNCTION     0.35    52.18    52.18     0  00:00        0.63
  SFT30101600          JUNCTION     0.41    60.21    60.21     0  00:00        0.66
  SFT30101700          JUNCTION     0.45    65.55    65.55     0  00:00        7.05
  SFT30101800          JUNCTION     0.46    65.47    65.47     0  00:00        7.19
  SFT30101900          JUNCTION     0.47    65.39    65.39     0  00:00        7.32
  SFT30102000          JUNCTION     0.48    65.81    65.81     0  00:00        8.19
  SFT30102600          JUNCTION    15.64   108.00   108.00     0  00:03      100.42
  SFT30102700          JUNCTION    15.74   108.00   108.00     0  00:03      101.20
  SFT30102800          JUNCTION    15.74   108.00   108.00     0  00:03      101.18
  SFT30102900          JUNCTION    15.77   108.00   108.00     0  00:03      101.42
  SFT30103100          JUNCTION     5.26    50.60    50.66     0  16:02       45.68
  SFT30104500          JUNCTION     0.57    25.08    23.88     0  19:57       12.41
  SFT30104600          JUNCTION     0.54    25.11    23.83     0  00:00       11.16
  SFT30104700          JUNCTION     0.44    10.62     9.11     0  00:00        6.79
  SFT30107200          JUNCTION     0.43    11.68    10.15     0  00:00        6.52
  SFT30109800          JUNCTION     8.92    27.46    27.46     0  00:00       25.31
  SFT30122000          JUNCTION     1.38    48.48    48.48     0  14:42        2.35
  SFT30123000          JUNCTION     5.13    47.28    47.45     0  18:32       31.35
  SFT30123100          JUNCTION     4.01    35.23    36.07     0  18:32       21.87
  SFT30123200          JUNCTION     3.31    28.01    29.45     0  18:32       22.01
  SFT30191000          JUNCTION     0.01     0.50     3.86     0  00:00        0.09
  SFT30191200          JUNCTION    11.99    83.76    83.76     0  18:10       68.09
  SFT30191300          JUNCTION    11.83    82.31    82.31     0  18:10       65.98
  SFT30191600          JUNCTION    12.06    84.39    84.39     0  18:10       69.05
  SFT30191800          JUNCTION     1.83    26.52    29.22     0  18:32       23.64
  SFT30192000          JUNCTION     1.71    25.87    28.67     0  18:32       23.11
  SFT30192100          JUNCTION    11.81    82.04    82.04     0  18:10       65.72
  SFT30192200          JUNCTION    10.29    62.46    62.46     0  00:03       56.81
  SFT30192300          JUNCTION    10.29    62.40    62.40     0  00:03       56.76
  SFT30192500          JUNCTION    13.26    91.37    91.37     0  00:03       80.52
  SFT30192600          JUNCTION    14.54   108.00   108.00     0  00:03       91.46
  SFT30192800          JUNCTION    10.29    62.41    62.41     0  00:03       56.79
  SFT30193100          JUNCTION    11.83    82.43    82.43     0  18:10       66.12
  SFT30193200          JUNCTION    11.83    82.38    82.38     0  18:10       65.98
  SFT30193300          JUNCTION    11.83    82.35    82.35     0  18:10       65.98
  SFT301E5001          JUNCTION     9.97    58.74    58.74     0  00:03       52.37
  SFT301E5002          JUNCTION     0.06     9.94     8.77     0  00:00        0.36
  SFT301E5003          JUNCTION    10.16    23.46    21.71     0  00:46       19.04
  SFT301E5004          JUNCTION     8.91    27.35    27.35     0  00:00       25.22
  SFT301E5005          JUNCTION     8.82    25.19    25.19     0  00:00       23.61
  SFT301E5006          JUNCTION     9.04    30.74    30.74     0  00:03       27.41
  SFT301E5007          JUNCTION     9.13    34.40    34.40     0  00:03       29.02
  SFT301E5008          JUNCTION     9.14    34.56    34.56     0  00:03       29.10
  SFT301E5009          JUNCTION     9.31    42.56    42.56     0  12:21       34.57
  SFT301E5010          JUNCTION     9.42    59.51    59.51     0  12:21       38.26
  SFT301E5011          JUNCTION     9.62    50.31    50.31     0  17:21       44.46
  SFT301E5012          JUNCTION     9.66    52.53    52.53     0  17:21       45.68
  SFT301E5013          JUNCTION     9.67    52.60    52.60     0  17:21       45.98
  SFT301E5014          JUNCTION     9.71    52.21    52.21     0  00:03       46.87
  SFT301E5015          JUNCTION     9.79    54.40    54.40     0  00:03       48.76
  SFT301E5016          JUNCTION     9.98    58.88    58.88     0  00:03       52.54
  SFT301E5017          JUNCTION    10.21    60.71    60.71     0  00:03       54.44
  SFT301E5018          JUNCTION    11.89    75.50    75.50     0  17:02       68.76
  SFT301E5019          JUNCTION    14.48   108.00   108.00     0  00:03       90.99
  SFT301E5020          JUNCTION     0.22    20.53    19.20     0  00:37        6.36
  SFT301E5021          JUNCTION     9.86    56.14    56.14     0  00:03       50.24
  SFT37006500          JUNCTION     0.05    51.63    51.56     0  00:00        0.40
  SFT37006600          JUNCTION     0.06    42.44    42.22     0  00:00        0.33
  SFT37006700          JUNCTION     0.06    29.64    29.09     0  00:00        0.46
  SFT37006800          JUNCTION     0.06    20.73    19.85     0  00:00        0.46
  SFT37006900          JUNCTION     0.06    16.41    15.40     0  00:00        0.44
  SFT37007000          JUNCTION     0.05    11.27    10.13     0  00:00        0.39
  SFT37007100          JUNCTION     0.32     7.21     5.37     0  00:00        1.63
  SFT37007300          JUNCTION    22.91    84.52    71.71     0  18:19       68.79
  SFT37007400          JUNCTION    16.46    46.97    39.16     0  18:19       38.36
  SFT37007500          JUNCTION     0.06    18.86    17.92     0  00:00        0.45
  SFT37007600          JUNCTION     8.00     8.00    -5.56     0  00:00        8.00
  SMH30116140          JUNCTION     0.08     0.83    -2.17     0  00:00        0.44
  SMH30116150          JUNCTION     0.10     3.16     0.99     0  00:00        0.26
  SMH30116170          JUNCTION     0.10     3.13     1.97     0  00:00        0.20
  SMH30118160          JUNCTION     0.01    13.29    12.64     0  00:00        0.18
  SMH30118300          JUNCTION     0.10     7.29     5.03     0  00:00        0.60
  SMH30118350          JUNCTION     0.10     7.83     6.58     0  00:00        0.66
  SMH30118360          JUNCTION     0.09     8.00     7.75     0  00:00        0.77
  SMH30118370          JUNCTION     0.02     8.00     8.15     0  00:00        0.52
  SMH30118380          JUNCTION     0.01     8.00     9.40     0  00:00        0.28
  SMH30118390          JUNCTION     0.08     8.00     8.05     0  00:00        0.50
  SMH30118400          JUNCTION     0.08     8.00     9.00     0  00:00        0.26
  SMH30190400          JUNCTION     0.01     8.09     6.51     0  00:00        0.14
  SMH30190600          JUNCTION     0.01     7.74     5.84     0  00:00        0.18
  SMH30190700          JUNCTION     0.01     4.59     1.49     0  00:00        0.25
  SMH30190800          JUNCTION     0.01     2.84    -1.33     0  00:00        0.39
  SMH301E0007          JUNCTION     0.03     8.00     6.78     0  00:00        0.20
  SMH301E0020          JUNCTION     0.14     4.42     2.52     0  00:00        0.36
  SMH37001700          JUNCTION     0.08     6.69     4.23     0  00:00        0.55
  SMH37001800          JUNCTION     0.13     6.05     3.34     0  00:00        0.68
  SMH37001900          JUNCTION     0.07     4.86     2.10     0  00:00        0.40
  SMH37002000          JUNCTION     0.15     3.51     0.34     0  00:00        0.73
  OFALL-310            OUTFALL      8.00     8.00     8.00     0  00:00        8.00
  SLS3010031A          STORAGE      3.98     5.02    -4.38     0  00:06        4.99
  SLS3010031G          STORAGE      4.04     8.79    -5.65     0  00:05        8.79
  SLS301031A1          STORAGE      4.00     6.18    -3.65     0  00:03        5.91
  SLS301031A2          STORAGE      2.75     3.50    -1.41     0  18:28        3.50
  SLS301031A3          STORAGE      4.01     5.50   -10.86     0  00:00        5.00
  SLS301031A4          STORAGE      1.98     2.50    -0.70     0  14:42        2.50
  SLS301031A5          STORAGE      3.25     4.00     0.97     0  20:52        3.99
  SLS301031F1          STORAGE      2.73     3.50    -3.20     0  18:23        3.49
  SLS301031F2          STORAGE      2.27     6.60    -2.34     0  00:03        6.55
  SLS30131F21          STORAGE      1.98     2.50    -1.90     0  17:06        2.49
  SLS30131F22          STORAGE      3.22     4.00    -9.80     0  18:52        4.00
  
  
  *******************
  Node Inflow Summary
  *******************
  
  -------------------------------------------------------------------------------------------------
                                  Maximum  Maximum                  Lateral       Total        Flow
                                  Lateral    Total  Time of Max      Inflow      Inflow     Balance
                                   Inflow   Inflow   Occurrence      Volume      Volume       Error
  Node                 Type           GPM      GPM  days hr:min    10^6 gal    10^6 gal     Percent
  -------------------------------------------------------------------------------------------------
  EAC_SMH30100001      JUNCTION      0.00  1872.15     0  00:01           0       0.103      -1.873
  EAC_SMH30100002      JUNCTION      0.00   695.19     0  00:00           0     0.00894     -11.107
  EAC_SMH30100003      JUNCTION      0.00   499.77     0  00:01           0     0.00813      -9.135
  EAC_SMH30100004      JUNCTION      0.00   495.48     0  00:01           0     0.00772      -5.032
  EAC_SMH30100005      JUNCTION      0.00   463.85     0  00:01           0     0.00709      -8.100
  EAC_SMH30100006      JUNCTION      0.00   448.34     0  00:00           0     0.00619     -12.787
  EAC_SMH30100011      JUNCTION      0.00  1016.70     0  00:01           0       0.091      -2.003
  EAC_SMH30100012      JUNCTION      0.00  1017.10     0  00:01           0      0.0889      -2.336
  EAC_SMH30100013      JUNCTION      0.00  1017.32     0  00:01           0      0.0877      -1.356
  EAC_SMH30100014      JUNCTION      0.00  1055.24     0  00:00           0      0.0867      -1.140
  EAC_SMH30100015      JUNCTION      0.00  1004.62     0  00:01           0       0.085      -1.869
  EAC_SMH30100016      JUNCTION      0.00   678.90     0  00:01           0      0.0834      -1.884
  EAC_SMH30100019      JUNCTION      0.00   558.72     0  00:00           0      0.0822      -1.504
  JCT-10               JUNCTION      0.00   952.66     0  00:09           0       0.148      -3.840
  JCT-310              JUNCTION      0.00  2380.45     0  00:03           0       0.555       0.007
  JCT-310-1            JUNCTION      0.00  2380.29     0  00:03           0       0.555       0.004
  JCT-310-2            JUNCTION      0.00  2380.04     0  00:03           0       0.572      -0.012
  JCT-312              JUNCTION      0.00   353.04     0  19:18           0     0.00135       5.213
  JCT-31A              JUNCTION      0.00  1592.19     0  00:36           0       0.143      -0.130
  JCT-31A1             JUNCTION      0.00   750.00     0  00:00           0      0.0904       0.049
  JCT-31A1V            JUNCTION      0.00   775.57     0  00:00           0      0.0933       0.016
  JCT-31A2             JUNCTION      0.00   249.51     0  08:37           0      0.0345      -0.157
  JCT-31A2V            JUNCTION      0.00   218.91     1  03:48           0      0.0356      -0.213
  JCT-31A3             JUNCTION      0.00   436.33     0  17:21           0       0.051      -0.040
  JCT-31A3V            JUNCTION      0.00   436.48     0  17:21           0      0.0521      -0.440
  JCT-31A4             JUNCTION      0.00   301.30     1  04:23           0     0.00113       0.191
  JCT-31A4V            JUNCTION      0.00   305.58     0  19:18           0     0.00142      -1.040
  JCT-31A5             JUNCTION      0.00   525.00     0  12:47           0     0.00162      -1.555
  JCT-31A5V            JUNCTION      0.00   405.52     0  12:48           0     0.00165     -12.280
  JCT-31AV             JUNCTION      0.00  1581.68     0  15:48           0       0.135      -0.679
  JCT-31F1             JUNCTION      0.00   525.00     0  03:49           0      0.0036      -3.129
  JCT-31F2             JUNCTION      0.00   525.00     0  01:40           0      0.0781      -0.504
  JCT-31F21            JUNCTION      0.00   525.15     0  23:23           0     0.00981      -2.695
  JCT-31F21V           JUNCTION      0.00   467.15     0  16:06           0      0.0104      -2.255
  JCT-31F22            JUNCTION      0.00   750.06     0  09:39           0       0.023      -2.288
  JCT-31F22V           JUNCTION      0.00   853.52     0  19:34           0      0.0244      -2.587
  JCT-31F2V            JUNCTION      0.00   443.90     0  03:36           0      0.0809      -0.462
  SFT30100200          JUNCTION      0.00   476.35     0  00:00           0      0.0413      -0.948
  SFT30100300          JUNCTION      0.00   473.65     0  00:00           0      0.0409      -0.952
  SFT30100400          JUNCTION      0.00   472.92     0  00:00           0      0.0405      -1.067
  SFT30100600          JUNCTION      0.00    33.70     0  00:00           0    0.000431       0.000
  SFT30100700          JUNCTION      0.00   572.04     0  19:24           0       0.044      -1.083
  SFT30100800          JUNCTION      0.00   425.14     0  00:00           0       0.033      -3.149
  SFT30101000          JUNCTION      0.00   478.44     0  23:52           0       0.081      -0.499
  SFT30101300          JUNCTION      0.00   660.02     0  00:23           0      0.0253      -3.166
  SFT30101500          JUNCTION      0.00   424.82     0  00:00           0      0.0271      -6.096
  SFT30101600          JUNCTION      0.00   645.10     0  00:24           0      0.0262      -3.318
  SFT30101700          JUNCTION      0.00   896.53     0  00:23           0      0.0254      -1.491
  SFT30101800          JUNCTION      0.00  1053.53     0  15:43           0      0.0254      -1.873
  SFT30101900          JUNCTION      0.00   920.49     0  14:48           0      0.0252      -1.616
  SFT30102000          JUNCTION      0.00   990.01     0  15:55           0      0.0253      -1.015
  SFT30102600          JUNCTION      0.00   918.07     0  03:04           0       0.178       0.071
  SFT30102700          JUNCTION      0.00   530.50     0  00:36           0      0.0144      -0.804
  SFT30102800          JUNCTION      0.00  1387.99     0  00:36           0       0.178       0.320
  SFT30102900          JUNCTION      0.00  1539.29     0  00:36           0       0.143      -0.785
  SFT30103100          JUNCTION      0.00   205.38     0  00:00           0      0.0369       0.291
  SFT30104500          JUNCTION      0.00   273.58     0  17:06           0       0.079      -1.669
  SFT30104600          JUNCTION      0.00   305.18     0  17:06           0      0.0803      -0.292
  SFT30104700          JUNCTION      0.00   268.47     0  16:47           0      0.0805      -0.202
  SFT30107200          JUNCTION      0.00   312.00     0  20:17           0      0.0842      -0.379
  SFT30109800          JUNCTION      0.00  1566.95     0  18:26           0       0.426       0.029
  SFT30122000          JUNCTION      0.00   331.08     0  19:18           0     0.00141      -0.193
  SFT30123000          JUNCTION      0.00   437.31     0  17:21           0       0.053      -0.066
  SFT30123100          JUNCTION      0.00   438.63     0  20:17           0      0.0535       0.197
  SFT30123200          JUNCTION      0.00   440.16     0  18:09           0      0.0537       0.191
  SFT30191000          JUNCTION      0.00   369.25     0  18:32           0      0.0503      -0.445
  SFT30191200          JUNCTION      0.00   897.74     0  00:00           0       0.106       0.143
  SFT30191300          JUNCTION      0.00   942.12     0  00:00           0       0.136       0.060
  SFT30191600          JUNCTION      0.00   833.06     0  00:00           0      0.0995      -0.078
  SFT30191800          JUNCTION      0.00   441.84     0  18:09           0      0.0589       0.479
  SFT30192000          JUNCTION      0.00   509.92     1  01:48           0       0.057      -0.085
  SFT30192100          JUNCTION      0.00   840.79     0  20:20           0       0.152       0.124
  SFT30192200          JUNCTION      0.00   859.95     0  20:20           0        0.17       0.133
  SFT30192300          JUNCTION      0.00   903.88     0  20:20           0       0.201       0.204
  SFT30192500          JUNCTION      0.00   918.25     0  03:04           0       0.195       0.638
  SFT30192600          JUNCTION      0.00   919.76     0  03:04           0       0.184       0.147
  SFT30192800          JUNCTION      0.00   171.64     0  19:52           0     0.00432       1.347
  SFT30193100          JUNCTION      0.00     8.88     0  19:05           0    0.000172      33.229
  SFT30193200          JUNCTION      0.00    65.56     0  19:23           0     0.00151       0.155
  SFT30193300          JUNCTION      0.00   257.80     0  00:00           0      0.0101       0.695
  SFT301E5001          JUNCTION      0.00  1510.20     0  18:26           0       0.399       0.090
  SFT301E5002          JUNCTION      0.00   397.31     0  00:00           0     0.00572      -1.164
  SFT301E5003          JUNCTION      0.00   952.68     0  00:09           0        0.16      -0.010
  SFT301E5004          JUNCTION      0.00  1568.59     0  18:26           0       0.429       0.019
  SFT301E5005          JUNCTION      0.00  1570.83     0  18:26           0        0.43       0.000
  SFT301E5006          JUNCTION      0.00  1566.62     0  18:26           0       0.425       0.002
  SFT301E5007          JUNCTION      0.00  1561.32     0  18:26           0       0.422       0.040
  SFT301E5008          JUNCTION      0.00  1556.33     0  18:26           0       0.417       0.066
  SFT301E5009          JUNCTION      0.00  1555.70     0  18:26           0       0.414       0.190
  SFT301E5010          JUNCTION      0.00  1554.89     0  18:26           0       0.414       0.169
  SFT301E5011          JUNCTION      0.00  1552.34     0  18:26           0       0.412       0.258
  SFT301E5012          JUNCTION      0.00  1542.22     0  18:26           0       0.408       0.134
  SFT301E5013          JUNCTION      0.00  1531.90     0  18:26           0       0.402       0.113
  SFT301E5014          JUNCTION      0.00  1528.37     0  18:26           0       0.398       0.482
  SFT301E5015          JUNCTION      0.00  1525.66     0  18:26           0       0.392       0.600
  SFT301E5016          JUNCTION      0.00   952.40     0  20:20           0       0.218       1.034
  SFT301E5017          JUNCTION      0.00   914.98     0  03:04           0       0.201       0.376
  SFT301E5018          JUNCTION      0.00   917.81     0  03:04           0       0.199       1.259
  SFT301E5019          JUNCTION      0.00   916.95     0  03:04           0        0.19       0.158
  SFT301E5020          JUNCTION      0.00   150.59     0  17:26           0     0.00321      -7.880
  SFT301E5021          JUNCTION      0.00  1522.94     0  18:26           0       0.383       0.373
  SFT37006500          JUNCTION      0.00   503.47     0  18:24           0     0.00372      -7.764
  SFT37006600          JUNCTION      0.00   452.20     0  11:17           0     0.00403      -9.936
  SFT37006700          JUNCTION      0.00   373.56     0  00:00           0     0.00447     -10.161
  SFT37006800          JUNCTION      0.00   373.64     0  00:00           0     0.00498      -5.464
  SFT37006900          JUNCTION      0.00   380.98     0  00:00           0     0.00539      -3.435
  SFT37007000          JUNCTION      0.00   388.09     0  00:00           0     0.00558      -2.346
  SFT37007100          JUNCTION      0.00   270.74     0  00:28           0      0.0813      -0.343
  SFT37007300          JUNCTION      0.00  1003.43     0  19:35           0       0.159       0.120
  SFT37007400          JUNCTION      0.00   952.69     0  00:09           0        0.16       0.068
  SFT37007500          JUNCTION      0.00   374.01     0  00:00           0     0.00527      -2.315
  SFT37007600          JUNCTION      0.00     0.00     0  00:00           0           0       0.000 gal
  SMH30116140          JUNCTION      0.00   755.56     0  00:01           0      0.0436      -1.363
  SMH30116150          JUNCTION      0.00   695.36     0  00:00           0      0.0424      -2.544
  SMH30116170          JUNCTION      0.00   476.44     0  00:00           0      0.0417      -1.615
  SMH30118160          JUNCTION      0.00   272.71     0  00:00           0     0.00187     -15.011
  SMH30118300          JUNCTION      0.00   487.59     0  00:00           0        0.04      -0.860
  SMH30118350          JUNCTION      0.00   487.59     0  00:00           0      0.0394      -1.567
  SMH30118360          JUNCTION      0.00   487.59     0  00:00           0      0.0386      -1.929
  SMH30118370          JUNCTION      0.00   286.86     0  00:03           0     0.00294     -15.708
  SMH30118380          JUNCTION      0.00   267.34     0  00:00           0     0.00105     -67.031
  SMH30118390          JUNCTION      0.00   216.67     0  00:00           0      0.0351      -0.029
  SMH30118400          JUNCTION      0.00   205.41     0  00:00           0      0.0358      -3.388
  SMH30190400          JUNCTION      0.00   272.71     0  00:00           0      0.0022      -8.954
  SMH30190600          JUNCTION      0.00   418.37     0  00:00           0     0.00242     -16.365
  SMH30190700          JUNCTION      0.00   459.39     0  00:00           0     0.00289     -19.690
  SMH30190800          JUNCTION      0.00   495.04     0  00:01           0      0.0036     -10.571
  SMH301E0007          JUNCTION      0.00   417.17     0  00:00           0     0.00578      -6.550
  SMH301E0020          JUNCTION      0.00   256.46     0  00:04           0      0.0816      -0.746
  SMH37001700          JUNCTION      0.00   487.59     0  00:00           0      0.0404      -0.320
  SMH37001800          JUNCTION      0.00   490.43     0  00:00           0      0.0405      -0.265
  SMH37001900          JUNCTION      0.00   492.58     0  00:00           0      0.0406      -0.280
  SMH37002000          JUNCTION      0.00   504.15     0  00:00           0      0.0407      -0.383
  OFALL-310            OUTFALL       0.00  2380.54     0  00:03           0       0.555       0.000
  SLS3010031A          STORAGE     129.51   566.68     0  00:00       0.102       0.145       0.075
  SLS3010031G          STORAGE      47.77  1896.38     0  00:01      0.0375       0.145      -0.059
  SLS301031A1          STORAGE      43.55  2460.16     0  00:00      0.0342      0.0907      -0.209
  SLS301031A2          STORAGE      42.98    42.98     0  18:00      0.0338      0.0345       0.047
  SLS301031A3          STORAGE      62.46    62.46     0  18:00      0.0491      0.0523       0.013
  SLS301031A4          STORAGE       0.84     0.84     0  18:00    0.000663     0.00119       0.046
  SLS301031A5          STORAGE       1.67     1.67     0  18:00     0.00131     0.00216       0.096
  SLS301031F1          STORAGE       4.30     4.30     0  18:00     0.00338     0.00412       0.062
  SLS301031F2          STORAGE      42.39   962.73     0  00:00      0.0333      0.0786      -0.038
  SLS30131F21          STORAGE      12.15    12.15     0  18:00     0.00955      0.0101       0.011
  SLS30131F22          STORAGE      28.46    28.46     0  18:00      0.0224      0.0232       0.000
  
  
  **********************
  Node Surcharge Summary
  **********************
  
  Surcharging occurs when water rises above the top of the highest conduit.
  ---------------------------------------------------------------------
                                               Max. Height   Min. Depth
                                   Hours       Above Crown    Below Rim
  Node                 Type      Surcharged           Feet         Feet
  ---------------------------------------------------------------------
  EAC_SMH30100001      JUNCTION        0.30          1.845        9.425
  EAC_SMH30100002      JUNCTION        0.01          2.714        6.773
  EAC_SMH30100003      JUNCTION        0.01          3.994        5.772
  EAC_SMH30100004      JUNCTION        0.02          6.224        1.769
  EAC_SMH30100005      JUNCTION        0.01          6.573        2.880
  EAC_SMH30100006      JUNCTION        0.02          6.857        0.477
  EAC_SMH30100011      JUNCTION        0.25          2.998        7.972
  EAC_SMH30100012      JUNCTION        0.19          4.670        5.190
  EAC_SMH30100013      JUNCTION        0.11          6.607        2.623
  EAC_SMH30100014      JUNCTION        0.07          6.709        2.191
  EAC_SMH30100015      JUNCTION        0.01          6.650        0.350
  EAC_SMH30100016      JUNCTION        0.01          6.349        0.651
  EAC_SMH30100019      JUNCTION        0.01          2.386        4.781
  JCT-10               JUNCTION       29.28         73.286        0.000
  JCT-310              JUNCTION       30.00          8.851        0.000
  JCT-310-1            JUNCTION       30.00         11.142        0.000
  JCT-310-2            JUNCTION       30.00         16.281        0.000
  JCT-312              JUNCTION       19.74        103.364        0.000
  JCT-31A              JUNCTION       30.00        107.500        0.000
  JCT-31A1             JUNCTION       29.99        107.500        0.000
  JCT-31A1V            JUNCTION       30.00         85.250        0.000
  JCT-31A2             JUNCTION       28.82         46.474        0.000
  JCT-31A2V            JUNCTION       29.25         50.409        0.000
  JCT-31A3             JUNCTION       29.61         53.615        0.000
  JCT-31A3V            JUNCTION       29.73         47.560        0.000
  JCT-31A4             JUNCTION       30.00         46.206        0.000
  JCT-31A4V            JUNCTION       29.92         48.496        0.000
  JCT-31A5             JUNCTION        0.10         51.632        0.000
  JCT-31A5V            JUNCTION        0.07         82.575        0.000
  JCT-31AV             JUNCTION       26.45        106.459        0.000
  JCT-31F1             JUNCTION        0.16         61.454        0.000
  JCT-31F2             JUNCTION       11.23         38.935        0.000
  JCT-31F21            JUNCTION        1.00         45.843        0.000
  JCT-31F21V           JUNCTION        0.39         45.696        0.000
  JCT-31F22            JUNCTION        6.98        103.619        0.000
  JCT-31F22V           JUNCTION        0.56         65.316        0.000
  JCT-31F2V            JUNCTION        3.42         38.070        0.000
  SFT30100200          JUNCTION        0.03          3.969        3.531
  SFT30100300          JUNCTION        0.05         23.362        0.000
  SFT30100400          JUNCTION        0.06         23.921        0.000
  SFT30100600          JUNCTION        0.13         46.221        0.000
  SFT30100700          JUNCTION        0.14         45.778        0.000
  SFT30100800          JUNCTION        0.02         46.016        0.000
  SFT30101000          JUNCTION        1.12         37.916        0.000
  SFT30101300          JUNCTION        0.03         59.885        0.000
  SFT30101500          JUNCTION        0.04         51.515        0.000
  SFT30101600          JUNCTION        0.04         59.540        0.000
  SFT30101700          JUNCTION        0.15         64.883        0.000
  SFT30101800          JUNCTION        0.47         64.801        0.000
  SFT30101900          JUNCTION        0.49         64.725        0.000
  SFT30102000          JUNCTION        0.56         65.142        0.000
  SFT30102600          JUNCTION       27.14        107.333        0.000
  SFT30102700          JUNCTION       26.52        107.333        0.000
  SFT30102800          JUNCTION       26.90        107.333        0.000
  SFT30102900          JUNCTION       26.51        107.333        0.000
  SFT30103100          JUNCTION       27.56         50.271        0.000
  SFT30104500          JUNCTION        3.01         24.579        0.000
  SFT30104600          JUNCTION        2.76         24.614        0.000
  SFT30104700          JUNCTION        2.73         10.120        0.000
  SFT30107200          JUNCTION        2.64         11.179        0.000
  SFT30109800          JUNCTION       30.00         26.131        0.000
  SFT30122000          JUNCTION       29.94         47.984        0.000
  SFT30123000          JUNCTION       29.73         46.783        0.000
  SFT30123100          JUNCTION       30.00         34.568        0.000
  SFT30123200          JUNCTION       30.00         27.345        0.000
  SFT30191000          JUNCTION        0.01          0.000        7.500
  SFT30191200          JUNCTION       27.95         83.091        0.000
  SFT30191300          JUNCTION       29.19         81.640        0.000
  SFT30191600          JUNCTION       27.74         83.725        0.000
  SFT30191800          JUNCTION        2.51         25.854        0.000
  SFT30192000          JUNCTION        2.33         25.200        0.000
  SFT30192100          JUNCTION       29.92         81.378        0.000
  SFT30192200          JUNCTION       27.84         61.461        0.000
  SFT30192300          JUNCTION       28.56         61.404        0.000
  SFT30192500          JUNCTION       29.61         90.705        0.000
  SFT30192600          JUNCTION       28.38        107.333        0.000
  SFT30192800          JUNCTION       30.00         61.748        0.000
  SFT30193100          JUNCTION       29.99         82.178        0.000
  SFT30193200          JUNCTION       30.00         82.046        0.000
  SFT30193300          JUNCTION       30.00         81.846        0.000
  SFT301E5001          JUNCTION       27.38         57.403        0.000
  SFT301E5002          JUNCTION        0.02          9.445        0.000
  SFT301E5003          JUNCTION       30.00         22.465        0.000
  SFT301E5004          JUNCTION       30.00         26.014        0.000
  SFT301E5005          JUNCTION       30.00         23.855        0.000
  SFT301E5006          JUNCTION       30.00         29.410        0.000
  SFT301E5007          JUNCTION       30.00         33.071        0.000
  SFT301E5008          JUNCTION       29.98         33.230        0.000
  SFT301E5009          JUNCTION       30.00         41.226        0.000
  SFT301E5010          JUNCTION       30.00         58.176        0.000
  SFT301E5011          JUNCTION       30.00         48.974        0.000
  SFT301E5012          JUNCTION       29.97         51.200        0.000
  SFT301E5013          JUNCTION       29.83         51.265        0.000
  SFT301E5014          JUNCTION       29.81         50.874        0.000
  SFT301E5015          JUNCTION       29.71         53.066        0.000
  SFT301E5016          JUNCTION       29.99         57.878        0.000
  SFT301E5017          JUNCTION       29.98         60.044        0.000
  SFT301E5018          JUNCTION       29.74         74.830        0.000
  SFT301E5019          JUNCTION       29.21        107.333        0.000
  SFT301E5020          JUNCTION        0.45         20.028        0.000
  SFT301E5021          JUNCTION       29.12         54.804        0.000
  SFT37006500          JUNCTION        0.06         51.133        0.000
  SFT37006600          JUNCTION        0.02         41.940        0.000
  SFT37006700          JUNCTION        0.04         29.137        0.000
  SFT37006800          JUNCTION        0.03         20.226        0.000
  SFT37006900          JUNCTION        0.02         15.915        0.000
  SFT37007000          JUNCTION        0.02         10.774        0.000
  SFT37007100          JUNCTION        0.38          6.706        0.794
  SFT37007300          JUNCTION       30.00         83.852        0.000
  SFT37007400          JUNCTION       30.00         45.970        0.000
  SFT37007500          JUNCTION        0.02         18.360        0.000
  SFT37007600          JUNCTION       30.00          8.000        0.000
  SMH30116140          JUNCTION        0.01          0.000        7.497
  SMH30116150          JUNCTION        0.01          2.326        4.841
  SMH30116170          JUNCTION        0.01          2.301        4.896
  SMH30118160          JUNCTION        0.02         12.790        0.000
  SMH30118300          JUNCTION        0.05          6.622        1.871
  SMH30118350          JUNCTION        0.08          7.160        0.173
  SMH30118360          JUNCTION        0.09          7.333        0.000
  SMH30118370          JUNCTION        0.06          7.333        0.000
  SMH30118380          JUNCTION        0.02          7.333        0.000
  SMH30118390          JUNCTION        0.06          7.333        0.000
  SMH30118400          JUNCTION        0.03          7.333        0.000
  SMH30190400          JUNCTION        0.01          7.423        0.481
  SMH30190600          JUNCTION        0.01          7.074        1.020
  SMH30190700          JUNCTION        0.01          3.928        8.186
  SMH30190800          JUNCTION        0.01          2.176        8.487
  SMH301E0007          JUNCTION        0.01          7.333        0.000
  SMH301E0020          JUNCTION        0.01          3.583        3.583
  SMH37001700          JUNCTION        0.01          6.020        2.704
  SMH37001800          JUNCTION        0.13          5.384        3.979
  SMH37001900          JUNCTION        0.01          4.190        4.973
  SMH37002000          JUNCTION        0.15          2.846        6.307
  
  
  *********************
  Node Flooding Summary
  *********************
  
  Flooding refers to all water that overflows a node, whether it ponds or not.
  --------------------------------------------------------------------------
                                                             Total   Maximum
                                 Maximum   Time of Max       Flood    Ponded
                        Hours       Rate    Occurrence      Volume     Depth
  Node                 Flooded       GPM   days hr:min    10^6 gal      Feet
  --------------------------------------------------------------------------
  JCT-31A                 1.52    517.38      0  00:03       0.012   100.000
  JCT-31A1                0.01    178.51      0  00:00       0.000   100.000
  SFT30102600             0.01     63.63      0  00:03       0.000   100.000
  SFT30102700             0.01    196.54      0  00:03       0.000   100.000
  SFT30102800             0.01    332.72      0  00:03       0.000   100.000
  SFT30102900             0.01    179.57      0  00:03       0.000   100.000
  SFT30192600             0.01    118.26      0  00:03       0.000   100.000
  SFT301E5019             0.01    112.53      0  00:03       0.000   100.000
  SMH30118160             0.01      1.11      0  00:00       0.000     5.290
  SMH30118360             0.01      1.82      0  00:00       0.000     0.000
  SMH30118370             0.01      1.85      0  00:00       0.000     0.000
  SMH30118380             0.01     17.19      0  00:00       0.000     0.000
  SMH30118400             0.01     47.40      0  00:00       0.000     0.000
  SMH301E0007             0.01     61.89      0  00:00       0.000     0.000
  
  
  **********************
  Storage Volume Summary
  **********************
  
  ------------------------------------------------------------------------------------------------
                         Average    Avg   Evap  Exfil     Maximum    Max    Time of Max    Maximum
                          Volume   Pcnt   Pcnt   Pcnt      Volume   Pcnt     Occurrence    Outflow
  Storage Unit          1000 ftł   Full   Loss   Loss    1000 ftł   Full    days hr:min        GPM
  ------------------------------------------------------------------------------------------------
  SLS3010031A              0.200   23.9    0.0    0.0       0.253   30.2       0  00:06    1592.19
  SLS3010031G              0.317   19.8    0.0    0.0       0.690   43.0       0  00:05     952.66
  SLS301031A1              0.201   22.7    0.0    0.0       0.311   35.1       0  00:03     750.00
  SLS301031A2              0.078   23.3    0.0    0.0       0.099   29.7       0  18:28     249.51
  SLS301031A3              0.315   16.7    0.0    0.0       0.432   23.0       0  00:00     436.33
  SLS301031A4              0.056   15.9    0.0    0.0       0.071   20.1       0  14:42     301.30
  SLS301031A5              0.092   21.0    0.0    0.0       0.113   25.8       0  20:52     525.00
  SLS301031F1              0.077   22.3    0.0    0.0       0.099   28.6       0  18:23     525.00
  SLS301031F2              0.114   15.8    0.0    0.0       0.332   46.1       0  00:03     525.00
  SLS30131F21              0.056   20.7    0.0    0.0       0.071   26.1       0  17:06     525.00
  SLS30131F22              0.091   16.9    0.0    0.0       0.113   21.1       0  18:52     750.00
  
  
  ***********************
  Outfall Loading Summary
  ***********************
  
  -----------------------------------------------------------
                         Flow       Avg       Max       Total
                         Freq      Flow      Flow      Volume
  Outfall Node           Pcnt       GPM       GPM    10^6 gal
  -----------------------------------------------------------
  OFALL-310             99.75    311.83   2380.54       0.555
  -----------------------------------------------------------
  System                99.75    311.83   2380.54       0.555
  
  
  ********************
  Link Flow Summary
  ********************
  
  -----------------------------------------------------------------------------
                                 Maximum  Time of Max   Maximum    Max/    Max/
                                  |Flow|   Occurrence   |Veloc|    Full    Full
  Link                 Type          GPM  days hr:min    ft/sec    Flow   Depth
  -----------------------------------------------------------------------------
  CDT-310              CONDUIT   2380.45     0  00:03      3.80   31.65    1.00
  CDT-310-1            CONDUIT   2380.54     0  00:03      3.80   27.35    1.00
  CDT-312              CONDUIT    267.34     0  00:00      3.55    5.93    1.00
  CDT-31A1D            CONDUIT    775.57     0  00:00      8.80  113.04    1.00
  CDT-31A2D            CONDUIT    218.91     1  03:48      5.59   78.07    1.00
  CDT-31A3D            CONDUIT    436.48     0  17:21      4.95   63.62    1.00
  CDT-31A4D            CONDUIT    305.58     0  19:18      7.80  108.98    1.00
  CDT-31A5D            CONDUIT    405.52     0  12:48     14.50  144.62    1.00
  CDT-31F1D            CONDUIT    503.47     0  18:24     16.46   19.42    1.00
  CDT-31F2             CONDUIT    443.90     0  03:36     11.40  158.31    1.00
  CDT-31F21D           CONDUIT    467.15     0  16:06     12.12  166.60    1.00
  CDT-31F22            CONDUIT    853.52     0  19:34     10.87  124.40    1.00
  CDT-331AD            CONDUIT   1581.68     0  15:48     17.95  230.53    1.00
  CDT-35               CONDUIT   2380.29     0  00:03     15.19  107.00    1.00
  EAC_SGP30100003      CONDUIT    695.19     0  00:00      3.40    0.93    1.00
  EAC_SGP30100006      CONDUIT    463.85     0  00:01      3.11    1.04    1.00
  EAC_SGP30100013      CONDUIT   1017.10     0  00:01      2.89    0.94    1.00
  EAC_SGP30100014      CONDUIT   1017.32     0  00:01      2.89    0.76    1.00
  EAC_SGP30100015      CONDUIT   1055.24     0  00:00      3.01    0.96    1.00
  EAC_SGP30100016      CONDUIT   1004.62     0  00:01      3.13    0.91    1.00
  EAC_SGP30100019      CONDUIT    678.90     0  00:01      3.11    1.00    1.00
  EAC_SPG30100001      CONDUIT   1872.84     0  00:01      5.48    1.91    1.00
  EAC_SPG30100002      CONDUIT    919.40     0  00:00      3.93    0.86    1.00
  EAC_SPG30100004      CONDUIT    499.77     0  00:01      3.47    1.08    1.00
  EAC_SPG30100005      CONDUIT    495.48     0  00:01      3.22    1.03    1.00
  EAC_SPG30100011      CONDUIT   1017.97     0  00:01      2.89    0.93    1.00
  EAC_SPG30100012      CONDUIT   1016.70     0  00:01      2.88    1.02    1.00
  SGP30116140          CONDUIT    941.84     0  00:00      5.57    0.72    0.85
  SGP30116150          CONDUIT    755.56     0  00:01      3.94    1.01    1.00
  SGP30116170          CONDUIT    695.36     0  00:00      3.08    0.94    1.00
  SGP30118160          CONDUIT    272.71     0  00:00      3.49    1.25    1.00
  SGP30118300          CONDUIT    487.59     0  00:00      3.20    1.22    1.00
  SGP30118350          CONDUIT    487.59     0  00:00      3.11    1.20    1.00
  SGP30118360          CONDUIT    487.59     0  00:00      3.11    1.20    1.00
  SGP30118370          CONDUIT    289.20     0  00:04      2.18    0.65    1.00
  SGP30118380          CONDUIT    286.86     0  00:03      2.16    0.64    1.00
  SGP30118390          CONDUIT    215.56     0  00:00      2.65    0.48    1.00
  SGP30118400          CONDUIT    216.67     0  00:00      2.78    0.49    1.00
  SGP30190400          CONDUIT    418.37     0  00:00      3.12    0.68    1.00
  SGP30190600          CONDUIT    459.39     0  00:00      3.09    1.03    1.00
  SGP30190700          CONDUIT    495.04     0  00:01      3.33    1.07    1.00
  SGP30190800          CONDUIT    506.60     0  00:01      3.63    1.10    0.96
  SGP301E0007          CONDUIT    448.34     0  00:00      2.98    1.01    1.00
  SGP301E0020          CONDUIT    558.72     0  00:00      2.55    0.82    1.00
  SGP37001700          CONDUIT    490.43     0  00:00      3.13    0.89    1.00
  SGP37001800          CONDUIT    492.58     0  00:00      3.38    2.05    1.00
  SGP37001900          CONDUIT    504.15     0  00:00      3.43    0.75    1.00
  SGP37002000          CONDUIT    502.84     0  00:00      3.46   14.96    0.88
  SPI30100200          CONDUIT    476.44     0  00:00      5.41    6.79    1.00
  SPI30100300          CONDUIT    476.35     0  00:00      5.41    6.79    1.00
  SPI3010031A          CONDUIT   1539.29     0  00:36      9.82  101.81    1.00
  SPI30100400          CONDUIT    473.65     0  00:00      5.37    6.75    1.00
  SPI30100600          CONDUIT     47.24     0  00:01      0.54    3.33    1.00
  SPI30100700          CONDUIT    472.92     0  00:00      5.37    6.74    1.00
  SPI30100800          CONDUIT    414.65     0  00:00      4.71    4.51    1.00
  SPI30101000          CONDUIT    273.58     0  17:06      3.23    4.47    1.00
  SPI30101300          CONDUIT    645.10     0  00:24      4.25   35.66    1.00
  SPI30101500          CONDUIT    425.14     0  00:00      2.71   97.61    1.00
  SPI30101600          CONDUIT    424.82     0  00:00      2.71  110.47    1.00
  SPI30101700          CONDUIT    660.02     0  00:23      4.22  133.69    1.00
  SPI30101800          CONDUIT    896.53     0  00:23      6.96   24.57    1.00
  SPI30101900          CONDUIT   1053.53     0  15:43      6.82   22.13    1.00
  SPI30102000          CONDUIT    920.49     0  14:48      6.24   43.80    1.00
  SPI30102600          CONDUIT    919.76     0  03:04      5.87  179.73    1.00
  SPI30102700          CONDUIT    530.50     0  00:36      3.39   18.46    1.00
  SPI30102800          CONDUIT    918.07     0  03:04      5.86   47.77    1.00
  SPI30102900          CONDUIT   1387.99     0  00:36      8.86   40.27    1.00
  SPI30103100          CONDUIT    205.41     0  00:00      5.46    6.16    1.00
  SPI301031A1          CONDUIT    833.06     0  00:00      9.45   68.88    1.00
  SPI301031A2          CONDUIT    205.38     0  00:00      5.24    6.16    1.00
  SPI301031A3          CONDUIT    437.31     0  17:21      4.96    3.59    1.00
  SPI301031A4          CONDUIT    331.08     0  19:18      3.76   34.25    1.00
  SPI301031A5          CONDUIT    272.71     0  00:00      8.87    7.30    1.00
  SPI301031F2          CONDUIT    478.44     0  23:52      7.65    7.82    1.00
  SPI30104500          CONDUIT    305.18     0  17:06      3.47    4.99    1.00
  SPI30104600          CONDUIT    268.47     0  16:47      3.07    4.39    1.00
  SPI30104700          CONDUIT    307.47     0  20:17      3.51    5.03    1.00
  SPI30109800          CONDUIT   1568.59     0  18:26      2.50   12.13    1.00
  SPI30122000          CONDUIT    353.03     0  19:18      4.01    4.04    1.00
  SPI30123000          CONDUIT    438.63     0  20:17      4.98    3.61    1.00
  SPI30123100          CONDUIT    440.16     0  18:09      2.81    1.72    1.00
  SPI30123200          CONDUIT    441.84     0  18:09      2.82    1.72    1.00
  SPI30131F21          CONDUIT    539.35     0  19:24      7.99    7.68    1.00
  SPI30131F22          CONDUIT    990.01     0  15:55      6.70   28.72    1.00
  SPI30191000          CONDUIT   1992.19     0  00:00     29.68    0.35    1.00
  SPI30191200          CONDUIT    942.12     0  00:00      6.01   79.07    1.00
  SPI30191300          CONDUIT    840.79     0  20:20      5.37   23.04    1.00
  SPI30191600          CONDUIT    897.74     0  00:00      5.73   49.22    1.00
  SPI30191800          CONDUIT    509.92     1  01:48      3.37    1.99    1.00
  SPI30192000          CONDUIT    369.25     0  18:32      7.40    3.04    1.00
  SPI30192100          CONDUIT    859.95     0  20:20      5.49  240.06    1.00
  SPI30192200          CONDUIT    888.26     0  20:20      2.52   10.39    1.00
  SPI30192300          CONDUIT    952.40     0  20:20      2.70  103.18    1.00
  SPI30192500          CONDUIT    917.81     0  03:04      5.86  199.88    1.00
  SPI30192600          CONDUIT    916.95     0  03:04      5.85   35.99    1.00
  SPI30192800          CONDUIT    171.64     0  19:52      1.10    7.53    1.00
  SPI30193100          CONDUIT      8.88     0  19:05      0.40   14.38    1.00
  SPI30193200          CONDUIT     65.56     0  19:23      1.67   14.00    1.00
  SPI30193300          CONDUIT    257.80     0  00:00      2.93   11.96    1.00
  SPI301E5001          CONDUIT   1522.94     0  18:26      2.43   54.62    1.00
  SPI301E5002          CONDUIT    417.17     0  00:00      4.73    5.63    1.00
  SPI301E5003          CONDUIT    952.65     0  00:09      2.70    0.64    1.00
  SPI301E5004          CONDUIT   1570.83     0  18:26      2.51   57.00    1.00
  SPI301E5005          CONDUIT   1571.01     0  18:26     10.03  134.81    1.00
  SPI301E5006          CONDUIT   1566.95     0  18:26      2.50   65.79    1.00
  SPI301E5007          CONDUIT   1566.62     0  18:26      2.50   56.99    1.00
  SPI301E5008          CONDUIT   1561.32     0  18:26      2.49   11.23    1.00
  SPI301E5009          CONDUIT   1556.33     0  18:26      2.48   77.91    1.00
  SPI301E5010          CONDUIT   1555.70     0  18:26      2.48   63.05    1.00
  SPI301E5011          CONDUIT   1554.89     0  18:26      2.48   83.84    1.00
  SPI301E5012          CONDUIT   1552.34     0  18:26      2.48   35.19    1.00
  SPI301E5013          CONDUIT   1542.22     0  18:26      2.46   17.34    1.00
  SPI301E5014          CONDUIT   1531.90     0  18:26      2.44   32.71    1.00
  SPI301E5015          CONDUIT   1528.37     0  18:26      2.44   50.11    1.00
  SPI301E5016          CONDUIT    968.63     0  20:20      2.75   17.31    1.00
  SPI301E5017          CONDUIT    906.51     0  03:04      5.79   77.22    1.00
  SPI301E5018          CONDUIT    914.98     0  03:04      5.84  221.51    1.00
  SPI301E5019          CONDUIT    918.25     0  03:04      5.86  188.05    1.00
  SPI301E5020          CONDUIT    150.59     0  17:26      2.02    2.46    1.00
  SPI301E5021          CONDUIT   1525.66     0  18:26      2.43   44.32    1.00
  SPI37006500          CONDUIT    452.20     0  11:17      8.79    6.10    1.00
  SPI37006600          CONDUIT    373.56     0  00:00      4.24    5.04    1.00
  SPI37006700          CONDUIT    373.64     0  00:00      4.24    5.04    1.00
  SPI37006800          CONDUIT    374.01     0  00:00      4.24    5.05    1.00
  SPI37006900          CONDUIT    388.09     0  00:00      4.40    5.24    1.00
  SPI37007000          CONDUIT    397.31     0  00:00      4.51    5.36    1.00
  SPI37007100          CONDUIT    256.46     0  00:04      3.68    4.19    1.00
  SPI37007200          CONDUIT    270.74     0  00:28      3.09    4.43    1.00
  SPI37007300          CONDUIT    952.69     0  00:09      6.08    1.83    1.00
  SPI37007400          CONDUIT    952.68     0  00:09      2.70    0.64    1.00
  SPI37007500          CONDUIT    380.98     0  00:00      4.32    5.14    1.00
  SPI37007600          CONDUIT   1003.43     0  19:35      6.40    0.41    1.00
  PUMP-11              PUMP       952.66     0  00:09              0.87
  PUMP-31A             PUMP      1592.19     0  00:36              0.86
  PUMP-31A1            PUMP       750.00     0  00:00              1.00
  PUMP-31A2            PUMP       249.51     0  08:37              0.48
  PUMP-31A3            PUMP       436.33     0  17:21              0.83
  PUMP-31A4            PUMP       301.30     1  04:23              0.57
  PUMP-31A5            PUMP       525.00     0  12:47              1.00
  PUMP-31F1            PUMP       525.00     0  03:49              1.00
  PUMP-31F2            PUMP       525.00     0  01:40              1.00
  PUMP-31F21           PUMP       525.00     0  01:22              1.00
  PUMP-31F22           PUMP       750.00     0  00:00              1.00
  
  
  ***************************
  Flow Classification Summary
  ***************************
  
  -------------------------------------------------------------------------------------
                      Adjusted    ---------- Fraction of Time in Flow Class ---------- 
                       /Actual         Up    Down  Sub   Sup   Up    Down  Norm  Inlet 
  Conduit               Length    Dry  Dry   Dry   Crit  Crit  Crit  Crit  Ltd   Ctrl  
  -------------------------------------------------------------------------------------
  CDT-310                 1.00   0.00  0.00  0.00  1.00  0.00  0.00  0.00  0.00  0.00
  CDT-310-1               1.00   0.00  0.00  0.00  1.00  0.00  0.00  0.00  0.00  0.00
  CDT-312                 1.00   0.00  0.00  0.00  1.00  0.00  0.00  0.00  0.98  0.00
  CDT-31A1D               1.00   0.00  0.00  0.00  1.00  0.00  0.00  0.00  0.00  0.00
  CDT-31A2D               1.00   0.00  0.00  0.00  1.00  0.00  0.00  0.00  0.00  0.00
  CDT-31A3D               1.00   0.00  0.00  0.00  1.00  0.00  0.00  0.00  0.00  0.00
  CDT-31A4D               1.00   0.00  0.00  0.00  1.00  0.00  0.00  0.00  0.00  0.00
  CDT-31A5D               1.00   0.00  0.00  0.00  1.00  0.00  0.00  0.00  0.00  0.00
  CDT-31F1D               1.00   0.00  0.00  0.00  1.00  0.00  0.00  0.00  0.96  0.00
  CDT-31F2                1.00   0.00  0.00  0.00  1.00  0.00  0.00  0.00  0.01  0.00
  CDT-31F21D              1.00   0.00  0.00  0.00  1.00  0.00  0.00  0.00  0.00  0.00
  CDT-31F22               1.00   0.00  0.00  0.00  1.00  0.00  0.00  0.00  0.00  0.00
  CDT-331AD               1.00   0.00  0.00  0.00  1.00  0.00  0.00  0.00  0.00  0.00
  CDT-35                  1.00   0.00  0.00  0.00  1.00  0.00  0.00  0.00  0.00  0.00
  EAC_SGP30100003         1.00   0.00  0.00  0.00  0.90  0.10  0.00  0.00  0.01  0.00
  EAC_SGP30100006         1.00   0.00  0.00  0.00  0.92  0.08  0.00  0.00  0.84  0.00
  EAC_SGP30100013         1.00   0.00  0.00  0.00  1.00  0.00  0.00  0.00  0.99  0.00
  EAC_SGP30100014         1.00   0.00  0.00  0.00  1.00  0.00  0.00  0.00  0.99  0.00
  EAC_SGP30100015         1.00   0.00  0.00  0.00  1.00  0.00  0.00  0.00  0.00  0.00
  EAC_SGP30100016         1.00   0.00  0.00  0.00  1.00  0.00  0.00  0.00  1.00  0.00
  EAC_SGP30100019         1.00   0.00  0.00  0.00  1.00  0.00  0.00  0.00  0.01  0.00
  EAC_SPG30100001         1.00   0.00  0.00  0.00  0.01  0.00  0.00  0.99  0.00  0.00
  EAC_SPG30100002         1.00   0.00  0.00  0.00  1.00  0.00  0.00  0.00  0.99  0.00
  EAC_SPG30100004         1.00   0.00  0.00  0.00  0.93  0.07  0.00  0.00  0.92  0.00
  EAC_SPG30100005         1.00   0.00  0.00  0.00  0.92  0.08  0.00  0.00  0.92  0.00
  EAC_SPG30100011         1.00   0.00  0.00  0.00  1.00  0.00  0.00  0.00  0.99  0.00
  EAC_SPG30100012         1.00   0.00  0.00  0.00  1.00  0.00  0.00  0.00  0.01  0.00
  SGP30116140             1.00   0.00  0.00  0.00  0.00  0.00  0.00  1.00  0.00  0.00
  SGP30116150             1.00   0.00  0.00  0.00  0.00  1.00  0.00  0.00  0.00  0.00
  SGP30116170             1.00   0.00  0.00  0.00  1.00  0.00  0.00  0.00  1.00  0.00
  SGP30118160             1.00   0.00  0.00  0.00  0.94  0.06  0.00  0.00  0.00  0.00
  SGP30118300             1.00   0.00  0.00  0.00  0.59  0.41  0.00  0.00  0.00  0.00
  SGP30118350             1.00   0.00  0.00  0.00  0.90  0.10  0.00  0.00  0.75  0.00
  SGP30118360             1.00   0.00  0.00  0.00  0.82  0.18  0.00  0.00  0.75  0.00
  SGP30118370             1.00   0.00  0.12  0.00  0.88  0.00  0.00  0.00  1.00  0.00
  SGP30118380             1.00   0.00  0.00  0.00  0.99  0.01  0.00  0.00  0.99  0.00
  SGP30118390             1.00   0.00  0.00  0.00  0.85  0.15  0.00  0.00  0.84  0.00
  SGP30118400             1.00   0.00  0.00  0.00  0.87  0.13  0.00  0.00  0.87  0.00
  SGP30190400             1.00   0.00  0.00  0.00  0.99  0.01  0.00  0.00  0.98  0.00
  SGP30190600             1.00   0.00  0.00  0.00  0.99  0.01  0.00  0.00  0.49  0.00
  SGP30190700             1.00   0.00  0.00  0.00  0.98  0.02  0.00  0.00  0.98  0.00
  SGP30190800             1.00   0.00  0.00  0.00  0.00  0.00  0.00  1.00  0.00  0.00
  SGP301E0007             1.00   0.00  0.00  0.00  0.94  0.06  0.00  0.00  0.91  0.00
  SGP301E0020             1.00   0.00  0.00  0.00  1.00  0.00  0.00  0.00  0.96  0.00
  SGP37001700             1.00   0.00  0.00  0.00  1.00  0.00  0.00  0.00  0.99  0.00
  SGP37001800             1.00   0.00  0.00  0.00  1.00  0.00  0.00  0.00  0.00  0.00
  SGP37001900             1.00   0.00  0.00  0.00  1.00  0.00  0.00  0.00  1.00  0.00
  SGP37002000             1.00   0.00  0.00  0.00  0.00  0.00  0.00  1.00  0.00  0.00
  SPI30100200             1.00   0.00  0.00  0.00  1.00  0.00  0.00  0.00  0.00  0.00
  SPI30100300             1.00   0.00  0.00  0.00  1.00  0.00  0.00  0.00  0.98  0.00
  SPI3010031A             1.00   0.00  0.00  0.00  1.00  0.00  0.00  0.00  0.00  0.00
  SPI30100400             1.00   0.00  0.00  0.00  1.00  0.00  0.00  0.00  0.00  0.00
  SPI30100600             1.00   0.00  0.00  0.00  1.00  0.00  0.00  0.00  0.00  0.00
  SPI30100700             1.00   0.00  0.00  0.00  1.00  0.00  0.00  0.00  0.69  0.00
  SPI30100800             1.00   0.00  0.00  0.00  1.00  0.00  0.00  0.00  0.00  0.00
  SPI30101000             1.00   0.00  0.00  0.00  1.00  0.00  0.00  0.00  0.51  0.00
  SPI30101300             1.00   0.00  0.00  0.00  1.00  0.00  0.00  0.00  0.00  0.00
  SPI30101500             1.00   0.00  0.00  0.00  1.00  0.00  0.00  0.00  0.00  0.00
  SPI30101600             1.00   0.00  0.00  0.00  1.00  0.00  0.00  0.00  0.00  0.00
  SPI30101700             1.00   0.00  0.00  0.00  1.00  0.00  0.00  0.00  0.00  0.00
  SPI30101800             1.00   0.00  0.00  0.00  0.99  0.01  0.00  0.00  0.00  0.00
  SPI30101900             1.00   0.00  0.00  0.00  1.00  0.00  0.00  0.00  0.00  0.00
  SPI30102000             1.00   0.00  0.00  0.00  1.00  0.00  0.00  0.00  0.00  0.00
  SPI30102600             1.00   0.00  0.00  0.00  1.00  0.00  0.00  0.00  0.01  0.00
  SPI30102700             1.00   0.00  0.00  0.00  1.00  0.00  0.00  0.00  0.00  0.00
  SPI30102800             1.00   0.00  0.00  0.00  1.00  0.00  0.00  0.00  0.00  0.00
  SPI30102900             1.00   0.00  0.00  0.00  1.00  0.00  0.00  0.00  0.00  0.00
  SPI30103100             1.00   0.00  0.00  0.00  0.88  0.12  0.00  0.00  0.08  0.00
  SPI301031A1             1.00   0.00  0.00  0.00  1.00  0.00  0.00  0.00  0.00  0.00
  SPI301031A2             1.00   0.00  0.00  0.00  1.00  0.00  0.00  0.00  0.00  0.00
  SPI301031A3             1.00   0.00  0.00  0.00  1.00  0.00  0.00  0.00  0.00  0.00
  SPI301031A4             1.00   0.00  0.00  0.00  1.00  0.00  0.00  0.00  0.00  0.00
  SPI301031A5             1.00   0.00  0.00  0.00  1.00  0.00  0.00  0.00  0.45  0.00
  SPI301031F2             1.00   0.00  0.00  0.00  0.93  0.07  0.00  0.00  0.00  0.00
  SPI30104500             1.00   0.00  0.00  0.00  1.00  0.00  0.00  0.00  0.05  0.00
  SPI30104600             1.00   0.00  0.00  0.00  1.00  0.00  0.00  0.00  0.35  0.00
  SPI30104700             1.00   0.00  0.00  0.00  1.00  0.00  0.00  0.00  0.00  0.00
  SPI30109800             1.00   0.00  0.00  0.00  1.00  0.00  0.00  0.00  0.00  0.00
  SPI30122000             1.00   0.00  0.00  0.00  1.00  0.00  0.00  0.00  0.00  0.00
  SPI30123000             1.00   0.00  0.00  0.00  1.00  0.00  0.00  0.00  0.00  0.00
  SPI30123100             1.00   0.00  0.00  0.00  1.00  0.00  0.00  0.00  0.00  0.00
  SPI30123200             1.00   0.00  0.00  0.00  1.00  0.00  0.00  0.00  0.00  0.00
  SPI30131F21             1.00   0.00  0.00  0.00  0.99  0.01  0.00  0.00  0.00  0.00
  SPI30131F22             1.00   0.00  0.00  0.00  1.00  0.00  0.00  0.00  0.00  0.00
  SPI30191000             5.76   0.00  0.56  0.00  0.36  0.08  0.00  0.00  1.00  0.00
  SPI30191200             1.00   0.00  0.00  0.00  1.00  0.00  0.00  0.00  0.01  0.00
  SPI30191300             1.00   0.00  0.00  0.00  1.00  0.00  0.00  0.00  0.00  0.00
  SPI30191600             1.00   0.00  0.00  0.00  1.00  0.00  0.00  0.00  0.00  0.00
  SPI30191800             1.00   0.00  0.00  0.00  1.00  0.00  0.00  0.00  0.00  0.00
  SPI30192000             1.00   0.00  0.56  0.00  0.36  0.08  0.00  0.00  0.87  0.00
  SPI30192100             1.00   0.00  0.00  0.00  1.00  0.00  0.00  0.00  0.00  0.00
  SPI30192200             1.00   0.00  0.00  0.00  1.00  0.00  0.00  0.00  0.00  0.00
  SPI30192300             1.00   0.00  0.00  0.00  1.00  0.00  0.00  0.00  0.00  0.00
  SPI30192500             1.00   0.00  0.00  0.00  1.00  0.00  0.00  0.00  0.00  0.00
  SPI30192600             1.00   0.00  0.00  0.00  1.00  0.00  0.00  0.00  0.00  0.00
  SPI30192800             1.00   0.00  0.00  0.00  1.00  0.00  0.00  0.00  0.00  0.00
  SPI30193100             1.00   0.00  0.00  0.00  1.00  0.00  0.00  0.00  0.00  0.00
  SPI30193200             1.00   0.00  0.00  0.00  1.00  0.00  0.00  0.00  0.00  0.00
  SPI30193300             1.00   0.00  0.00  0.00  1.00  0.00  0.00  0.00  0.00  0.00
  SPI301E5001             1.00   0.00  0.00  0.00  1.00  0.00  0.00  0.00  0.00  0.00
  SPI301E5002             1.00   0.00  0.00  0.00  1.00  0.00  0.00  0.00  0.00  0.00
  SPI301E5003             1.00   0.00  0.00  0.00  1.00  0.00  0.00  0.00  0.00  0.00
  SPI301E5004             1.00   0.00  0.00  0.00  1.00  0.00  0.00  0.00  0.00  0.00
  SPI301E5005             1.00   0.00  0.00  0.00  1.00  0.00  0.00  0.00  0.00  0.00
  SPI301E5006             1.00   0.00  0.00  0.00  1.00  0.00  0.00  0.00  0.00  0.00
  SPI301E5007             1.00   0.00  0.00  0.00  1.00  0.00  0.00  0.00  0.00  0.00
  SPI301E5008             1.00   0.00  0.00  0.00  1.00  0.00  0.00  0.00  0.00  0.00
  SPI301E5009             1.00   0.00  0.00  0.00  1.00  0.00  0.00  0.00  0.00  0.00
  SPI301E5010             1.00   0.00  0.00  0.00  1.00  0.00  0.00  0.00  0.00  0.00
  SPI301E5011             1.00   0.00  0.00  0.00  1.00  0.00  0.00  0.00  0.00  0.00
  SPI301E5012             1.00   0.00  0.00  0.00  1.00  0.00  0.00  0.00  0.00  0.00
  SPI301E5013             1.00   0.00  0.00  0.00  1.00  0.00  0.00  0.00  0.00  0.00
  SPI301E5014             1.00   0.00  0.00  0.00  1.00  0.00  0.00  0.00  0.00  0.00
  SPI301E5015             1.00   0.00  0.00  0.00  1.00  0.00  0.00  0.00  0.00  0.00
  SPI301E5016             1.00   0.00  0.00  0.00  1.00  0.00  0.00  0.00  0.00  0.00
  SPI301E5017             1.00   0.00  0.00  0.00  1.00  0.00  0.00  0.00  0.00  0.00
  SPI301E5018             1.00   0.00  0.00  0.00  1.00  0.00  0.00  0.00  0.00  0.00
  SPI301E5019             1.00   0.00  0.00  0.00  1.00  0.00  0.00  0.00  0.01  0.00
  SPI301E5020             1.00   0.00  0.00  0.00  1.00  0.00  0.00  0.00  0.18  0.00
  SPI301E5021             1.00   0.00  0.00  0.00  1.00  0.00  0.00  0.00  0.00  0.00
  SPI37006500             1.00   0.00  0.00  0.00  1.00  0.00  0.00  0.00  0.98  0.00
  SPI37006600             1.00   0.00  0.00  0.00  1.00  0.00  0.00  0.00  0.93  0.00
  SPI37006700             1.00   0.00  0.00  0.00  1.00  0.00  0.00  0.00  0.87  0.00
  SPI37006800             1.00   0.00  0.00  0.00  1.00  0.00  0.00  0.00  0.86  0.00
  SPI37006900             1.00   0.00  0.00  0.00  1.00  0.00  0.00  0.00  0.89  0.00
  SPI37007000             1.00   0.00  0.00  0.00  1.00  0.00  0.00  0.00  0.64  0.00
  SPI37007100             1.00   0.00  0.00  0.00  1.00  0.00  0.00  0.00  0.00  0.00
  SPI37007200             1.00   0.00  0.00  0.00  1.00  0.00  0.00  0.00  0.44  0.00
  SPI37007300             1.00   0.00  0.00  0.00  1.00  0.00  0.00  0.00  0.00  0.00
  SPI37007400             1.00   0.00  0.00  0.00  1.00  0.00  0.00  0.00  0.00  0.00
  SPI37007500             1.00   0.00  0.00  0.00  1.00  0.00  0.00  0.00  0.89  0.00
  SPI37007600             1.00   0.00  0.00  0.00  1.00  0.00  0.00  0.00  0.00  0.00
  
  
  *************************
  Conduit Surcharge Summary
  *************************
  
  ----------------------------------------------------------------------------
                                                           Hours        Hours 
                         --------- Hours Full --------   Above Full   Capacity
  Conduit                Both Ends  Upstream  Dnstream   Normal Flow   Limited
  ----------------------------------------------------------------------------
  CDT-310                    30.00     30.00     30.00     19.06        15.85
  CDT-310-1                  30.00     30.00     30.00     18.07        15.74
  CDT-312                     0.02      0.04     14.77      0.10         0.01
  CDT-31A1D                  29.99     29.99     30.00      2.21         9.18
  CDT-31A2D                  28.75     28.77     29.23      4.51        14.33
  CDT-31A3D                  29.53     29.60     29.69      2.80        15.01
  CDT-31A4D                  30.00     30.00     30.00      0.10        14.65
  CDT-31A5D                   0.06      0.10      0.06      0.27         0.06
  CDT-31F1D                   0.08      0.13      0.20      0.15         0.08
  CDT-31F2                   10.74     11.04     11.68      4.42         6.34
  CDT-31F21D                  0.85      0.90      0.96      1.51         0.48
  CDT-31F22                   6.76      6.86      7.03      0.74         2.44
  CDT-331AD                  30.00     30.00     30.00      3.45         9.82
  CDT-35                     30.00     30.00     30.00     25.94        17.01
  EAC_SGP30100003             0.01      0.01      0.01      0.01         0.01
  EAC_SGP30100006             0.01      0.02      0.01      0.02         0.01
  EAC_SGP30100013             0.11      0.11      0.19      0.01         0.01
  EAC_SGP30100014             0.07      0.07      0.11      0.01         0.01
  EAC_SGP30100015             0.01      0.01      0.07      0.01         0.01
  EAC_SGP30100016             0.01      0.01      0.01      0.01         0.01
  EAC_SGP30100019             0.01      0.01      0.02      0.01         0.01
  EAC_SPG30100001             0.28      0.30      0.29      0.07         0.04
  EAC_SPG30100002             0.01      0.01      0.32      0.01         0.01
  EAC_SPG30100004             0.01      0.02      0.01      0.04         0.01
  EAC_SPG30100005             0.01      0.01      0.02      0.02         0.01
  EAC_SPG30100011             0.24      0.25      0.30      0.01         0.01
  EAC_SPG30100012             0.18      0.19      0.25      0.01         0.02
  SGP30116140                 0.01      0.01      0.06      0.01         0.01
  SGP30116150                 0.01      0.01      0.01      0.01         0.01
  SGP30116170                 0.01      0.01      0.01      0.01         0.01
  SGP30118160                 0.01      0.02      0.01      0.02         0.01
  SGP30118300                 0.01      0.05      0.01      0.14         0.01
  SGP30118350                 0.05      0.08      0.05      0.13         0.05
  SGP30118360                 0.08      0.09      0.08      0.11         0.08
  SGP30118370                 0.06      0.06      0.09      0.01         0.01
  SGP30118380                 0.02      0.02      0.06      0.01         0.01
  SGP30118390                 0.06      0.06      0.09      0.01         0.01
  SGP30118400                 0.03      0.03      0.06      0.01         0.01
  SGP30190400                 0.01      0.01      0.01      0.01         0.01
  SGP30190600                 0.01      0.01      0.01      0.01         0.01
  SGP30190700                 0.01      0.01      0.01      0.02         0.01
  SGP30190800                 0.01      0.01      0.04      0.03         0.01
  SGP301E0007                 0.01      0.01      0.02      0.01         0.01
  SGP301E0020                 0.01      0.01      0.01      0.01         0.01
  SGP37001700                 0.01      0.01      0.13      0.01         0.01
  SGP37001800                 0.01      0.13      0.01      0.19         0.01
  SGP37001900                 0.01      0.01      0.15      0.01         0.01
  SGP37002000                 0.01      0.15      0.01      5.95         0.01
  SPI30100200                 0.02      0.03      0.02      0.39         0.02
  SPI30100300                 0.03      0.05      0.03      0.34         0.02
  SPI3010031A                25.85     26.39     26.42      4.63         9.23
  SPI30100400                 0.05      0.06      0.05      0.24         0.05
  SPI30100600                 0.12      0.13      0.12      0.01         0.02
  SPI30100700                 0.06      0.14      0.06      0.04         0.05
  SPI30100800                 0.13      0.13      0.14      0.10         0.02
  SPI30101000                 0.88      1.11      2.96      1.41         0.84
  SPI30101300                 0.02      0.03      0.04      6.86         0.02
  SPI30101500                 0.02      0.04      0.02     30.00         0.02
  SPI30101600                 0.04      0.04      0.04     29.09         0.02
  SPI30101700                 0.03      0.15      0.03     20.03         0.02
  SPI30101800                 0.13      0.43      0.15      0.91         0.08
  SPI30101900                 0.41      0.47      0.43      0.79         0.32
  SPI30102000                 0.45      0.53      0.47      1.08         0.35
  SPI30102600                26.27     27.01     28.28     23.90        14.41
  SPI30102700                26.14     26.45     26.75      3.26         7.87
  SPI30102800                26.19     26.75     27.01     13.97        13.74
  SPI30102900                26.05     26.42     26.75      5.15         8.91
  SPI30103100                 0.04      0.05     27.51      3.78         0.01
  SPI301031A1                30.00     30.00     30.00      4.53        11.25
  SPI301031A2                27.47     27.51     29.23      3.69         0.18
  SPI301031A3                29.60     29.67     29.69      2.43         0.12
  SPI301031A4                29.91     29.91     29.93      0.13        13.49
  SPI301031A5                 0.02      0.06      0.03      0.09         0.02
  SPI301031F2                 1.04      3.39      1.11      3.42         0.96
  SPI30104500                 2.58      2.96      2.71      2.29         2.00
  SPI30104600                 2.51      2.71      2.68      3.20         2.13
  SPI30104700                 2.56      2.68      2.61      3.47         2.11
  SPI30109800                30.00     30.00     30.00     14.00        14.86
  SPI30122000                14.75     14.77     29.93      0.09         0.01
  SPI30123000                29.67     30.00     29.67      2.45         0.26
  SPI30123100                29.99     30.00     30.00      2.37         0.23
  SPI30123200                 2.50      2.50     30.00      2.37         0.08
  SPI30131F21                 0.10      0.38      0.14      0.36         0.02
  SPI30131F22                 0.51      0.56      0.53      0.70         0.41
  SPI30191000                 0.01      0.01     30.00      0.01         0.01
  SPI30191200                27.81     27.90     29.14     10.04        15.07
  SPI30191300                29.11     29.14     29.83      8.79        13.84
  SPI30191600                27.67     27.72     27.90      5.63        12.96
  SPI30191800                 2.33      2.33      2.50      2.33         0.05
  SPI30192000                 0.01      0.01     30.00      2.34         0.01
  SPI30192100                29.84     29.84     30.00     26.91        15.93
  SPI30192200                27.25     27.78     28.43      7.11        12.87
  SPI30192300                28.43     28.44     29.98     25.45        15.47
  SPI30192500                29.11     29.39     29.61     25.91        15.07
  SPI30192600                27.79     28.28     29.08     13.86        13.77
  SPI30192800                30.00     30.00     30.00      1.33         8.57
  SPI30193100                29.97     29.97     30.00      1.03        10.31
  SPI30193200                30.00     30.00     30.00      2.54         8.52
  SPI30193300                30.00     30.00     30.00      3.74         9.30
  SPI301E5001                27.19     27.33     29.03     21.94        15.45
  SPI301E5002                 0.02      0.02      0.02      0.18         0.02
  SPI301E5003                30.00     30.00     30.00      0.01         0.01
  SPI301E5004                30.00     30.00     30.00     24.76        15.55
  SPI301E5005                30.00     30.00     30.00     27.71        16.21
  SPI301E5006                30.00     30.00     30.00     25.31        15.85
  SPI301E5007                30.00     30.00     30.00     24.63        15.85
  SPI301E5008                29.98     29.98     30.00     13.04        14.86
  SPI301E5009                29.98     29.99     29.98     25.73        15.76
  SPI301E5010                29.99     29.99     29.99     24.80        15.76
  SPI301E5011                29.98     29.99     29.99     26.00        15.75
  SPI301E5012                29.95     29.96     29.99     21.17        15.85
  SPI301E5013                29.80     29.82     29.96     15.72        15.49
  SPI301E5014                29.68     29.78     29.82     20.28        15.75
  SPI301E5015                29.47     29.63     29.78     22.69        15.76
  SPI301E5016                29.98     29.98     30.00     13.66        14.97
  SPI301E5017                29.93     29.93     30.00     22.75        14.63
  SPI301E5018                29.57     29.61     29.93     27.16        14.68
  SPI301E5019                28.60     29.09     29.39     25.40        15.11
  SPI301E5020                 0.41      0.44      2.61      0.37         0.02
  SPI301E5021                28.84     29.03     29.62     21.23        15.61
  SPI37006500                 0.02      0.06      0.02      0.13         0.02
  SPI37006600                 0.02      0.02      0.03      0.02         0.02
  SPI37006700                 0.03      0.03      0.03      0.03         0.03
  SPI37006800                 0.02      0.03      0.02      0.10         0.02
  SPI37006900                 0.02      0.02      0.02      0.15         0.02
  SPI37007000                 0.02      0.02      0.02      0.17         0.02
  SPI37007100                 0.02      0.37      0.02      7.33         0.02
  SPI37007200                 0.37      2.61      0.37      7.25         0.36
  SPI37007300                30.00     30.00     30.00      2.76         0.01
  SPI37007400                30.00     30.00     30.00      0.01         0.01
  SPI37007500                 0.02      0.02      0.02      0.12         0.02
  SPI37007600                29.09     29.09     30.00      0.01         0.01
  
  
  ***************
  Pumping Summary
  ***************
  
  ---------------------------------------------------------------------------------------------------------
                                                  Min       Avg       Max     Total     Power    % Time Off
                        Percent   Number of      Flow      Flow      Flow    Volume     Usage    Pump Curve
  Pump                 Utilized   Start-Ups       GPM       GPM       GPM  10^6 gal     Kw-hr    Low   High
  ---------------------------------------------------------------------------------------------------------
  PUMP-11                  9.03          92      0.00    883.26    952.66     0.144     19.17    0.0    0.0
  PUMP-31A                 7.76         163      0.00   1019.69   1592.19     0.143     46.93    0.0    0.0
  PUMP-31A1                6.75          58      0.00    737.29    750.00     0.090     19.18    0.0   78.1
  PUMP-31A2               11.55          89      0.00    163.13    249.51     0.034      4.63    0.0    0.0
  PUMP-31A3                7.95          38      0.00    352.73    436.33     0.050      6.86    0.0    0.0
  PUMP-31A4                0.26           4      0.00    187.29    301.30     0.001      0.11    0.0    0.0
  PUMP-31A5                0.31           5      0.00    285.38    525.00     0.002      0.16    0.0    4.5
  PUMP-31F1                0.45          11      0.00    439.08    525.00     0.004      0.34    0.0    7.9
  PUMP-31F2               11.36         111      0.00    379.62    525.00     0.078      6.12    0.0    0.7
  PUMP-31F21               1.22          43      0.00    435.33    525.00     0.010      0.59    0.0    5.3
  PUMP-31F22               1.68          67      0.00    748.17    750.00     0.023      1.56    0.0   98.7
  

  Analysis begun on:  Fri Mar  6 15:00:29 2026
  Analysis ended on:  Fri Mar  6 15:00:42 2026
  Total elapsed time: 00:00:13