
  EPA STORM WATER MANAGEMENT MODEL - VERSION 5.2 (Build 5.2.4)
  ------------------------------------------------------------

  
  ERROR 205: invalid keyword GENERAL at line 251 of [CURVE] section:
  BLOCK_BRICK	GENERAL	0.000000	0.000000

  
  ERROR 205: invalid keyword GENERAL at line 258 of [CURVE] section:
  BLOCK_CONC	GENERAL	0.000000	0.800000

  
  ERROR 205: invalid keyword GENERAL at line 261 of [CURVE] section:
  BLOCK_PVC	GENERAL	0.000000	2.000000

  
  ERROR 205: invalid keyword GENERAL at line 264 of [CURVE] section:
  BLOCK_VCP	GENERAL	0.000000	0.500000

  
  ERROR 205: invalid keyword GENERAL at line 267 of [CURVE] section:
  COLLAPSE_BRICK	GENERAL	6.000000	0.100000

  
  ERROR 205: invalid keyword GENERAL at line 272 of [CURVE] section:
  COLLAPSE_CONC	GENERAL	6.000000	0.300000

  
  ERROR 205: invalid keyword GENERAL at line 281 of [CURVE] section:
  COLLAPSE_PVC	GENERAL	6.000000	0.040000

  
  ERROR 205: invalid keyword GENERAL at line 288 of [CURVE] section:
  COLLAPSE_VCP	GENERAL	6.000000	0.200000

  
  ERROR 205: invalid keyword GENERAL at line 297 of [CURVE] section:
  CONSEQ_POPULATION	GENERAL	0.000000	0.000000

  
  ERROR 205: invalid keyword GENERAL at line 305 of [CURVE] section:
  CONSEQ_RESTAURANTS	GENERAL	0.000000	200.000000

  
  ERROR 205: invalid keyword GENERAL at line 312 of [CURVE] section:
  DEPTH	GENERAL	0.000000	50.000000


  Analysis begun on:  Fri Mar  6 15:00:42 2026
  Analysis ended on:  Fri Mar  6 15:00:42 2026
  Total elapsed time: < 1 sec