
  EPA STORM WATER MANAGEMENT MODEL - VERSION 5.2 (Build 5.2.4)
  ------------------------------------------------------------

  
  ****************
  Analysis Options
  ****************
  Flow Units ............... LPS
  Process Models:
    Rainfall/Runoff ........ YES
    RDII ................... NO
    Snowmelt ............... NO
    Groundwater ............ NO
    Flow Routing ........... YES
    Ponding Allowed ........ NO
    Water Quality .......... NO
  Infiltration Method ...... GREEN_AMPT
  Flow Routing Method ...... DYNWAVE
  Surcharge Method ......... EXTRAN
  Starting Date ............ 05/07/2013 00:00:00
  Ending Date .............. 05/07/2013 04:00:00
  Antecedent Dry Days ...... 0.0
  Report Time Step ......... 00:01:00
  Wet Time Step ............ 00:01:00
  Dry Time Step ............ 01:00:00
  Routing Time Step ........ 30.00 sec
  Variable Time Step ....... YES
  Maximum Trials ........... 8
  Number of Threads ........ 1
  Head Tolerance ........... 0.001524 m
  
  
  **************************        Volume         Depth
  Runoff Quantity Continuity     hectare-m            mm
  **************************     ---------       -------
  Total Precipitation ......         0.088        27.080
  Evaporation Loss .........         0.000         0.000
  Infiltration Loss ........         0.008         2.394
  Surface Runoff ...........         0.077        23.811
  Final Storage ............         0.003         0.899
  Continuity Error (%) .....        -0.087
  
  
  **************************        Volume        Volume
  Flow Routing Continuity        hectare-m      10^6 ltr
  **************************     ---------     ---------
  Dry Weather Inflow .......         0.000         0.000
  Wet Weather Inflow .......         0.077         0.771
  Groundwater Inflow .......         0.000         0.000
  RDII Inflow ..............         0.000         0.000
  External Inflow ..........         0.000         0.000
  External Outflow .........         0.077         0.767
  Flooding Loss ............         0.000         0.000
  Evaporation Loss .........         0.000         0.000
  Exfiltration Loss ........         0.000         0.000
  Initial Stored Volume ....         0.000         0.000
  Final Stored Volume ......         0.000         0.004
  Continuity Error (%) .....        -0.051
  
  
  *************************
  Highest Continuity Errors
  *************************
  Node J11 (4.63%)
  
  
  ***************************
  Time-Step Critical Elements
  ***************************
  Link C11 (68.80%)
  Link C9 (31.11%)
  
  
  ********************************
  Highest Flow Instability Indexes
  ********************************
  All links are stable.
  
  
  *********************************
  Most Frequent Nonconverging Nodes
  *********************************
  Convergence obtained at all time steps.
  
  
  *************************
  Routing Time Step Summary
  *************************
  Minimum Time Step           :     0.50 sec
  Average Time Step           :     1.01 sec
  Maximum Time Step           :    30.00 sec
  % of Time in Steady State   :     0.00
  Average Iterations per Step :     2.00
  % of Steps Not Converging   :     0.00
  Time Step Frequencies       :
     30.000 - 13.228 sec      :     0.08 %
     13.228 -  5.833 sec      :     0.00 %
      5.833 -  2.572 sec      :     0.00 %
      2.572 -  1.134 sec      :    33.14 %
      1.134 -  0.500 sec      :    66.78 %
  
  
  ***************************
  Subcatchment Runoff Summary
  ***************************
  
  ------------------------------------------------------------------------------------------------------------------------------
                            Total      Total      Total      Total     Imperv       Perv      Total       Total     Peak  Runoff
                           Precip      Runon       Evap      Infil     Runoff     Runoff     Runoff      Runoff   Runoff   Coeff
  Subcatchment                 mm         mm         mm         mm         mm         mm         mm    10^6 ltr      LPS
  ------------------------------------------------------------------------------------------------------------------------------
  S12A                      27.08       0.00       0.00       2.23      13.52      11.14      24.66        0.02    12.63   0.911
  S11A                      27.08       0.00       0.00       2.26      13.52      11.00      24.52        0.02    13.94   0.905
  S11                       27.08       0.00       0.00       2.31      24.20      10.81      24.20        0.02    14.17   0.894
  S12                       27.08       0.00       0.00       2.29      24.31      10.89      24.31        0.02    13.10   0.898
  S10                       27.08       0.00       0.00       1.91      13.55      11.63      25.18        0.01     8.53   0.930
  S9                        27.08       0.00       0.00       2.03      13.54      11.52      25.06        0.01     9.22   0.925
  S7                        27.08       0.00       0.00       2.19      13.53      11.29      24.82        0.01    11.39   0.916
  S6                        27.08       0.00       0.00       2.17      13.53      11.34      24.87        0.01    10.65   0.919
  S8                        27.08       0.00       0.00       1.99      13.54      11.56      25.10        0.01     8.89   0.927
  S5                        27.08       0.00       0.00       1.63      13.56      11.92      25.48        0.01     6.20   0.941
  S13                       27.08       0.00       0.00       2.50      13.45       9.83      23.28        0.10    63.76   0.860
  S14                       27.08       0.00       0.00       2.35      13.50      10.61      24.11        0.13    92.08   0.890
  S15                       27.08       0.00       0.00       2.41      13.48      10.32      23.79        0.09    63.58   0.879
  S16                       27.08       0.00       0.00       2.42      13.48      10.26      23.74        0.07    48.77   0.877
  S18                       27.08       0.00       0.00       2.46      13.46      10.04      23.50        0.16   106.42   0.868
  S17                       27.08       0.00       0.00       2.49      13.45       9.89      23.34        0.09    62.51   0.862
  
  
  ******************
  Node Depth Summary
  ******************
  
  ---------------------------------------------------------------------------------
                                 Average  Maximum  Maximum  Time of Max    Reported
                                   Depth    Depth      HGL   Occurrence   Max Depth
  Node                 Type       Meters   Meters   Meters  days hr:min      Meters
  ---------------------------------------------------------------------------------
  J2                   JUNCTION     0.02     0.05     5.65     0  00:15        0.05
  J3                   JUNCTION     0.01     0.04     5.44     0  00:15        0.04
  J4                   JUNCTION     0.03     0.10     5.08     0  00:15        0.10
  J5                   JUNCTION     0.02     0.05     5.50     0  00:20        0.05
  J6                   JUNCTION     0.03     0.09     5.34     0  00:20        0.09
  J7                   JUNCTION     0.03     0.10     5.31     0  00:20        0.10
  J8                   JUNCTION     0.04     0.14     4.69     0  00:16        0.14
  J10                  JUNCTION     0.04     0.12     4.77     0  00:15        0.12
  J11                  JUNCTION     0.25     0.38     4.51     0  00:17        0.38
  J12                  JUNCTION     0.03     0.11     4.45     0  00:17        0.11
  J13                  JUNCTION     0.02     0.07     4.14     0  00:15        0.07
  J14                  JUNCTION     0.05     0.16     3.99     0  00:16        0.16
  J15                  JUNCTION     0.05     0.17     3.97     0  00:16        0.17
  Out1                 OUTFALL      0.05     0.17     3.77     0  00:17        0.17
  
  
  *******************
  Node Inflow Summary
  *******************
  
  -------------------------------------------------------------------------------------------------
                                  Maximum  Maximum                  Lateral       Total        Flow
                                  Lateral    Total  Time of Max      Inflow      Inflow     Balance
                                   Inflow   Inflow   Occurrence      Volume      Volume       Error
  Node                 Type           LPS      LPS  days hr:min    10^6 ltr    10^6 ltr     Percent
  -------------------------------------------------------------------------------------------------
  J2                   JUNCTION     13.94    13.94     0  00:15       0.018       0.018       0.011
  J3                   JUNCTION     12.63    26.56     0  00:15      0.0158      0.0338       0.005
  J4                   JUNCTION      0.00    26.56     0  00:15           0      0.0338       0.017
  J5                   JUNCTION     13.10    13.10     0  00:20      0.0188      0.0188       0.017
  J6                   JUNCTION     14.17    27.26     0  00:20      0.0205      0.0393       0.016
  J7                   JUNCTION      0.00    27.26     0  00:20           0      0.0393       0.095
  J8                   JUNCTION     18.11    63.48     0  00:15      0.0205      0.0828      -0.432
  J10                  JUNCTION     19.93    46.02     0  00:20      0.0231      0.0624       0.000
  J11                  JUNCTION      0.00    63.21     0  00:16           0      0.0832       4.852
  J12                  JUNCTION      0.00    62.76     0  00:17           0      0.0793       0.073
  J13                  JUNCTION     10.65    36.74     0  00:15      0.0127      0.0465       0.009
  J14                  JUNCTION      6.20   104.58     0  00:16     0.00631       0.132      -0.023
  J15                  JUNCTION      0.00   104.59     0  00:17           0       0.132       0.011
  Out1                 OUTFALL     437.12   541.30     0  00:20       0.635       0.767       0.000
  
  
  **********************
  Node Surcharge Summary
  **********************
  
  No nodes were surcharged.
  
  
  *********************
  Node Flooding Summary
  *********************
  
  No nodes were flooded.
  
  
  ***********************
  Outfall Loading Summary
  ***********************
  
  -----------------------------------------------------------
                         Flow       Avg       Max       Total
                         Freq      Flow      Flow      Volume
  Outfall Node           Pcnt       LPS       LPS    10^6 ltr
  -----------------------------------------------------------
  Out1                  99.92     96.11    541.30       0.767
  -----------------------------------------------------------
  System                99.92     96.11    541.30       0.767
  
  
  ********************
  Link Flow Summary
  ********************
  
  -----------------------------------------------------------------------------
                                 Maximum  Time of Max   Maximum    Max/    Max/
                                  |Flow|   Occurrence   |Veloc|    Full    Full
  Link                 Type          LPS  days hr:min     m/sec    Flow   Depth
  -----------------------------------------------------------------------------
  C1                   CONDUIT     13.09     0  00:20      1.04    0.06    0.23
  C2                   CONDUIT     27.26     0  00:20      1.55    0.18    0.32
  C3                   CONDUIT     27.12     0  00:20      1.04    0.15    0.29
  C6                   CONDUIT     63.21     0  00:16      0.89    0.16    0.50
  C7                   CONDUIT     62.76     0  00:17      0.64    0.09    0.46
  C8                   CONDUIT     62.76     0  00:17      1.47    0.09    0.25
  C9                   CONDUIT    104.59     0  00:17      2.23    0.33    0.44
  C10                  CONDUIT     13.94     0  00:15      2.08    0.06    0.15
  C11                  CONDUIT     26.56     0  00:15      2.92    0.03    0.23
  C12                  CONDUIT     26.31     0  00:15      1.79    0.23    0.29
  C13                  CONDUIT     36.67     0  00:15      1.66    0.08    0.31
  C14                  CONDUIT    104.60     0  00:17      2.16    0.42    0.45
  C18                  CONDUIT     45.92     0  00:15      1.39    0.19    0.34
  
  
  ***************************
  Flow Classification Summary
  ***************************
  
  -------------------------------------------------------------------------------------
                      Adjusted    ---------- Fraction of Time in Flow Class ---------- 
                       /Actual         Up    Down  Sub   Sup   Up    Down  Norm  Inlet 
  Conduit               Length    Dry  Dry   Dry   Crit  Crit  Crit  Crit  Ltd   Ctrl  
  -------------------------------------------------------------------------------------
  C1                      1.00   0.02  0.00  0.00  0.00  0.97  0.00  0.00  0.98  0.00
  C2                      1.00   0.02  0.00  0.00  0.00  0.98  0.00  0.00  0.75  0.00
  C3                      1.00   0.02  0.00  0.00  0.01  0.97  0.00  0.00  0.29  0.00
  C6                      1.00   0.02  0.00  0.00  0.96  0.02  0.00  0.00  0.96  0.00
  C7                      1.00   0.02  0.02  0.00  0.96  0.00  0.00  0.00  0.00  0.00
  C8                      1.00   0.02  0.02  0.00  0.00  0.95  0.00  0.00  0.96  0.00
  C9                      1.00   0.02  0.00  0.00  0.00  0.98  0.00  0.00  0.54  0.00
  C10                     1.00   0.02  0.00  0.00  0.00  0.98  0.00  0.00  0.00  0.00
  C11                     1.00   0.02  0.00  0.00  0.00  0.98  0.00  0.00  0.97  0.00
  C12                     1.00   0.02  0.00  0.00  0.00  0.98  0.00  0.00  0.00  0.00
  C13                     1.00   0.02  0.00  0.00  0.25  0.73  0.00  0.00  0.97  0.00
  C14                     1.00   0.02  0.00  0.00  0.00  0.98  0.00  0.00  0.56  0.00
  C18                     1.00   0.02  0.00  0.00  0.00  0.98  0.00  0.00  0.89  0.00
  
  
  *************************
  Conduit Surcharge Summary
  *************************
  
  No conduits were surcharged.
  

  Analysis begun on:  Fri Mar  6 15:00:42 2026
  Analysis ended on:  Fri Mar  6 15:00:42 2026
  Total elapsed time: < 1 sec