
  EPA STORM WATER MANAGEMENT MODEL - VERSION 5.2 (Build 5.2.4)
  ------------------------------------------------------------

  
  ERROR 209: undefined object 111 at line 41 of [SUBCATCHMENT] section:
  1                111                111                5        25       500      0.5      0

  
  ERROR 209: undefined object 111 at line 42 of [SUBCATCHMENT] section:
  2                111                111                5        25       500      0.5      0

  
  ERROR 209: undefined object 111 at line 43 of [SUBCATCHMENT] section:
  3                111                111                5        25       500      0.5      0

  
  ERROR 209: undefined object 111 at line 44 of [SUBCATCHMENT] section:
  4                111                111                5        25       500      0.5      0

  
  ERROR 209: undefined object 111 at line 45 of [SUBCATCHMENT] section:
  5                111                111                5        25       500      0.5      0

  
  ERROR 209: undefined object 111 at line 46 of [SUBCATCHMENT] section:
  6                111                111                5        25       500      0.5      0

  
  ERROR 209: undefined object 111 at line 47 of [SUBCATCHMENT] section:
  7                111                111                0        25       500      0.5      0

  
  ERROR 209: undefined object 111 at line 48 of [SUBCATCHMENT] section:
  8                111                111                5        25       500      0.5      0

  
  ERROR 209: undefined object 111 at line 49 of [SUBCATCHMENT] section:
  9                111                111                5        25       500      0.5      0

  
  ERROR 209: undefined object 111 at line 50 of [SUBCATCHMENT] section:
  10               111                111                5        25       500      0.5      0

  
  ERROR 209: undefined object 111 at line 51 of [SUBCATCHMENT] section:
  11               111                111                5        25       500      0.5      0

  
  ERROR 209: undefined object 111 at line 52 of [SUBCATCHMENT] section:
  12               111                111                5        25       500      0.5      0

  
  ERROR 209: undefined object 111 at line 53 of [SUBCATCHMENT] section:
  13               111                111                5        25       500      0.5      0

  
  ERROR 209: undefined object 111 at line 54 of [SUBCATCHMENT] section:
  16               111                111                5        25       500      0.5      0

  
  ERROR 209: undefined object 111 at line 55 of [SUBCATCHMENT] section:
  17               111                111                5        25       500      0.5      0

  
  ERROR 209: undefined object 111 at line 56 of [SUBCATCHMENT] section:
  18               111                111                5        25       500      0.5      0

  
  ERROR 209: undefined object 111 at line 57 of [SUBCATCHMENT] section:
  19               111                111                5        25       500      0.5      0

  
  ERROR 209: undefined object 111 at line 58 of [SUBCATCHMENT] section:
  20               111                111                5        25       500      0.5      0

  
  ERROR 209: undefined object 111 at line 59 of [SUBCATCHMENT] section:
  21               111                111                5        25       500      0.5      0

  
  ERROR 209: undefined object 111 at line 60 of [SUBCATCHMENT] section:
  22               111                111                5        25       500      0.5      0

  
  ERROR 209: undefined object 111 at line 61 of [SUBCATCHMENT] section:
  23               111                111                5        25       500      0.5      0

  
  ERROR 209: undefined object 111 at line 62 of [SUBCATCHMENT] section:
  24               111                111                5        25       500      0.5      0

  
  ERROR 209: undefined object 111 at line 63 of [SUBCATCHMENT] section:
  25               111                111                5        25       500      0.5      0

  
  ERROR 209: undefined object 111 at line 64 of [SUBCATCHMENT] section:
  26               111                111                5        25       500      0.5      0

  
  ERROR 209: undefined object 111 at line 65 of [SUBCATCHMENT] section:
  27               111                111                5        25       500      0.5      0

  
  ERROR 209: undefined object 111 at line 66 of [SUBCATCHMENT] section:
  28               111                111                5        25       500      0.5      0

  
  ERROR 209: undefined object 111 at line 67 of [SUBCATCHMENT] section:
  29               111                111                5        25       500      0.5      0

  
  ERROR 209: undefined object 111 at line 68 of [SUBCATCHMENT] section:
  30               111                111                5        25       500      0.5      0

  
  ERROR 209: undefined object 111 at line 69 of [SUBCATCHMENT] section:
  31               111                111                5        25       500      0.5      0

  
  ERROR 209: undefined object 111 at line 70 of [SUBCATCHMENT] section:
  32               111                111                5        25       500      0.5      0

  
  ERROR 209: undefined object 111 at line 71 of [SUBCATCHMENT] section:
  33               111                111                5        25       500      0.5      0

  
  ERROR 209: undefined object 111 at line 72 of [SUBCATCHMENT] section:
  34               111                111                5        25       500      0.5      0

  
  ERROR 209: undefined object 111 at line 73 of [SUBCATCHMENT] section:
  35               111                111                5        25       500      0.5      0

  
  ERROR 209: undefined object 111 at line 74 of [SUBCATCHMENT] section:
  36               111                111                5        25       500      0.5      0

  
  ERROR 209: undefined object 111 at line 75 of [SUBCATCHMENT] section:
  37               111                111                5        25       500      0.5      0

  
  ERROR 209: undefined object 111 at line 76 of [SUBCATCHMENT] section:
  38               111                111                5        25       500      0.5      0

  
  ERROR 209: undefined object 111 at line 77 of [SUBCATCHMENT] section:
  39               111                111                5        25       500      0.5      0

  
  ERROR 209: undefined object 111 at line 78 of [SUBCATCHMENT] section:
  40               111                111                5        25       500      0.5      0

  
  ERROR 209: undefined object 111 at line 79 of [SUBCATCHMENT] section:
  41               111                111                5        25       500      0.5      0

  
  ERROR 209: undefined object 111 at line 80 of [SUBCATCHMENT] section:
  42               111                111                5        25       500      0.5      0

  
  ERROR 209: undefined object 111 at line 81 of [SUBCATCHMENT] section:
  43               111                111                5        25       500      0.5      0

  
  ERROR 209: undefined object 111 at line 82 of [SUBCATCHMENT] section:
  44               111                111                5        25       500      0.5      0

  
  ERROR 209: undefined object 111 at line 83 of [SUBCATCHMENT] section:
  45               111                111                5        25       500      0.5      0

  
  ERROR 209: undefined object 111 at line 84 of [SUBCATCHMENT] section:
  46               111                111                5        25       500      0.5      0

  
  ERROR 209: undefined object 111 at line 85 of [SUBCATCHMENT] section:
  47               111                111                5        25       500      0.5      0

  
  ERROR 209: undefined object 111 at line 86 of [SUBCATCHMENT] section:
  48               111                111                5        25       500      0.5      0

  
  ERROR 209: undefined object 111 at line 87 of [SUBCATCHMENT] section:
  49               111                111                5        25       500      0.5      0

  
  ERROR 209: undefined object 111 at line 88 of [SUBCATCHMENT] section:
  50               111                111                5        25       500      0.5      0

  
  ERROR 209: undefined object 111 at line 89 of [SUBCATCHMENT] section:
  51               111                111                5        25       500      0.5      0

  
  ERROR 209: undefined object 111 at line 90 of [SUBCATCHMENT] section:
  52               111                111                5        25       500      0.5      0

  
  ERROR 209: undefined object 111 at line 91 of [SUBCATCHMENT] section:
  53               111                111                5        25       500      0.5      0

  
  ERROR 209: undefined object 111 at line 92 of [SUBCATCHMENT] section:
  54               111                111                5        25       500      0.5      0

  
  ERROR 209: undefined object 111 at line 93 of [SUBCATCHMENT] section:
  55               111                111                5        25       500      0.5      0

  
  ERROR 209: undefined object 111 at line 94 of [SUBCATCHMENT] section:
  56               111                111                5        25       500      0.5      0

  
  ERROR 209: undefined object 111 at line 95 of [SUBCATCHMENT] section:
  57               111                111                5        25       500      0.5      0

  
  ERROR 209: undefined object 111 at line 96 of [SUBCATCHMENT] section:
  58               111                111                5        25       500      0.5      0

  
  ERROR 209: undefined object 111 at line 97 of [SUBCATCHMENT] section:
  59               111                111                5        25       500      0.5      0

  
  ERROR 209: undefined object 111 at line 98 of [SUBCATCHMENT] section:
  60               111                111                5        25       500      0.5      0

  
  ERROR 209: undefined object 111 at line 99 of [SUBCATCHMENT] section:
  61               111                111                5        25       500      0.5      0

  
  ERROR 209: undefined object 111 at line 100 of [SUBCATCHMENT] section:
  62               111                111                5        25       500      0.5      0

  
  ERROR 209: undefined object 111 at line 101 of [SUBCATCHMENT] section:
  63               111                111                0.01     25       500      0.5      0

  
  ERROR 209: undefined object 111 at line 102 of [SUBCATCHMENT] section:
  64               111                111                5        25       500      0.5      0

  
  ERROR 209: undefined object 111 at line 103 of [SUBCATCHMENT] section:
  73               111                111                5        25       500      0.5      0

  
  ERROR 209: undefined object 111 at line 104 of [SUBCATCHMENT] section:
  74               111                111                5        25       500      0.5      0

  
  ERROR 209: undefined object 111 at line 105 of [SUBCATCHMENT] section:
  75               111                111                5        25       500      0.5      0

  
  ERROR 209: undefined object 111 at line 106 of [SUBCATCHMENT] section:
  80               111                111                5        25       500      0.5      0

  
  ERROR 209: undefined object 111 at line 107 of [SUBCATCHMENT] section:
  83               111                111                5        25       500      0.5      0

  
  ERROR 209: undefined object 111 at line 108 of [SUBCATCHMENT] section:
  84               111                111                5        25       500      0.5      0

  
  ERROR 209: undefined object 111 at line 109 of [SUBCATCHMENT] section:
  85               111                111                5        25       500      0.5      0

  
  ERROR 209: undefined object 111 at line 110 of [SUBCATCHMENT] section:
  122              111                111                5        25       500      0.5      0

  
  ERROR 209: undefined object 111 at line 111 of [SUBCATCHMENT] section:
  123              111                111                5        25       500      0.5      0

  
  ERROR 209: undefined object 111 at line 112 of [SUBCATCHMENT] section:
  124              111                111                5        25       500      0.5      0

  
  ERROR 209: undefined object 111 at line 113 of [SUBCATCHMENT] section:
  125              111                111                5        25       500      0.5      0

  
  ERROR 209: undefined object 111 at line 114 of [SUBCATCHMENT] section:
  126              111                111                5        25       500      0.5      0


  Analysis begun on:  Fri Mar  6 15:00:42 2026
  Analysis ended on:  Fri Mar  6 15:00:42 2026
  Total elapsed time: < 1 sec