
  EPA STORM WATER MANAGEMENT MODEL - VERSION 5.2 (Build 5.2.4)
  ------------------------------------------------------------

  Scenario Run :  ONEYEARMODEL 
  Example 1 
  
  ****************
  Analysis Options
  ****************
  Flow Units ............... CFS
  Process Models:
    Rainfall/Runoff ........ YES
    RDII ................... YES
    Snowmelt ............... NO
    Groundwater ............ NO
    Flow Routing ........... YES
    Ponding Allowed ........ NO
    Water Quality .......... YES
  Infiltration Method ...... HORTON
  Flow Routing Method ...... DYNWAVE
  Surcharge Method ......... EXTRAN
  Starting Date ............ 01/01/2010 00:00:00
  Ending Date .............. 12/30/2010 23:00:00
  Antecedent Dry Days ...... 5.0
  Report Time Step ......... 01:00:00
  Wet Time Step ............ 00:15:00
  Dry Time Step ............ 01:00:00
  Routing Time Step ........ 60.00 sec
  Variable Time Step ....... YES
  Maximum Trials ........... 8
  Number of Threads ........ 1
  Head Tolerance ........... 0.001000 ft
  
  
  **********************           Volume        Volume
  Rainfall Dependent I/I        acre-feet      10^6 gal
  **********************        ---------     ---------
  Sewershed Rainfall ......         6.266         2.042
  RDII Produced ...........         1.127         0.367
  RDII Ratio ..............         0.180
  
  
  **************************        Volume         Depth
  Runoff Quantity Continuity     acre-feet        inches
  **************************     ---------       -------
  Total Precipitation ......        15.679         2.650
  Evaporation Loss .........         0.000         0.000
  Infiltration Loss ........         9.346         1.580
  Surface Runoff ...........         6.274         1.060
  Final Storage ............         0.078         0.013
  Continuity Error (%) .....        -0.126
  
  
  **************************           TSS          LEAD
  Runoff Quality Continuity            lbs           lbs
  **************************    ----------    ----------
  Initial Buildup ..........      3433.036         0.000
  Surface Buildup ..........      2193.866         0.088
  Wet Deposition ...........         0.000         0.000
  Sweeping Removal .........         0.000         0.000
  Infiltration Loss ........         0.000         0.000
  BMP Removal ..............         0.000         0.000
  Surface Runoff ...........       439.252         0.088
  Remaining Buildup ........      5187.649         0.000
  Continuity Error (%) .....         0.000         0.000
  
  
  **************************        Volume        Volume
  Flow Routing Continuity        acre-feet      10^6 gal
  **************************     ---------     ---------
  Dry Weather Inflow .......       199.389        64.974
  Wet Weather Inflow .......         6.272         2.044
  Groundwater Inflow .......         0.000         0.000
  RDII Inflow ..............         1.128         0.368
  External Inflow ..........        21.126         6.884
  External Outflow .........       227.728        74.208
  Flooding Loss ............         0.208         0.068
  Evaporation Loss .........         0.000         0.000
  Exfiltration Loss ........         0.000         0.000
  Initial Stored Volume ....         0.000         0.000
  Final Stored Volume ......         0.009         0.003
  Continuity Error (%) .....        -0.013
  
  
  **************************           TSS          LEAD
  Quality Routing Continuity           lbs           lbs
  **************************    ----------    ----------
  Dry Weather Inflow .......         0.000         0.000
  Wet Weather Inflow .......       439.017         0.088
  Groundwater Inflow .......         0.000         0.000
  RDII Inflow ..............         0.000         0.000
  External Inflow ..........         0.000         0.000
  External Outflow .........       428.874         0.086
  Flooding Loss ............        11.091         0.002
  Exfiltration Loss ........         0.000         0.000
  Mass Reacted .............         0.000         0.000
  Initial Stored Mass ......         0.000         0.000
  Final Stored Mass ........         0.000         0.000
  Continuity Error (%) .....        -0.216        -0.216
  
  
  ***************************
  Time-Step Critical Elements
  ***************************
  Link 16 (3.43%)
  Link 4 (1.73%)
  
  
  ********************************
  Highest Flow Instability Indexes
  ********************************
  Link 10 (2)
  
  
  *********************************
  Most Frequent Nonconverging Nodes
  *********************************
  Node 18 (0.01%)
  Node 10 (0.01%)
  Node 9 (0.00%)
  Node 13 (0.00%)
  Node 19 (0.00%)
  
  
  *************************
  Routing Time Step Summary
  *************************
  Minimum Time Step           :     2.59 sec
  Average Time Step           :    59.74 sec
  Maximum Time Step           :    60.00 sec
  % of Time in Steady State   :     0.00
  Average Iterations per Step :     2.12
  % of Steps Not Converging   :     0.01
  Time Step Frequencies       :
     60.000 -  6.645 sec      :   100.00 %
      6.645 -  0.736 sec      :     0.00 %
      0.736 -  0.082 sec      :     0.00 %
      0.082 -  0.009 sec      :     0.00 %
      0.009 -  0.001 sec      :     0.00 %
  
  
  ***************************
  Subcatchment Runoff Summary
  ***************************
  
  ------------------------------------------------------------------------------------------------------------------------------
                            Total      Total      Total      Total     Imperv       Perv      Total       Total     Peak  Runoff
                           Precip      Runon       Evap      Infil     Runoff     Runoff     Runoff      Runoff   Runoff   Coeff
  Subcatchment                 in         in         in         in         in         in         in    10^6 gal      CFS
  ------------------------------------------------------------------------------------------------------------------------------
  1                          2.65       0.00       0.00       1.16       1.31       0.17       1.48        0.40     4.44   0.557
  2                          2.65       0.00       0.00       1.21       1.31       0.11       1.42        0.39     4.31   0.537
  3                          2.65       0.00       0.00       1.16       1.31       0.17       1.48        0.20     2.42   0.559
  4                          2.65       0.00       0.00       1.16       1.31       0.17       1.48        0.20     2.42   0.559
  5                          2.65       0.00       0.00       1.24       1.31       0.09       1.39        0.57     5.94   0.526
  6                          2.65       0.00       0.00       2.27       0.26       0.12       0.38        0.12     1.49   0.143
  7                          2.65       0.00       0.00       2.14       0.26       0.25       0.51        0.06     0.79   0.194
  8                          2.65       0.00       0.00       2.25       0.26       0.13       0.40        0.11     1.33   0.150
  
  
  ****************************
  Subcatchment Washoff Summary
  ****************************
  
  ------------------------------------------------
                                 TSS          LEAD
  Subcatchment                   lbs           lbs
  ------------------------------------------------
  1                           49.319         0.010
  2                           97.237         0.019
  3                           24.864         0.005
  4                           48.170         0.010
  5                           69.898         0.014
  6                           66.717         0.013
  7                           26.118         0.005
  8                           56.929         0.011
  ------------------------------------------------
  System                     439.252         0.088
  
  
  ******************
  Node Depth Summary
  ******************
  
  ---------------------------------------------------------------------------------
                                 Average  Maximum  Maximum  Time of Max    Reported
                                   Depth    Depth      HGL   Occurrence   Max Depth
  Node                 Type         Feet     Feet     Feet  days hr:min        Feet
  ---------------------------------------------------------------------------------
  10                   JUNCTION     0.06     3.00   998.00     0  03:14        3.00
  13                   JUNCTION     0.04     0.41   995.41     0  04:00        0.41
  14                   JUNCTION     0.06     0.49   990.49     0  04:01        0.49
  15                   JUNCTION     0.08     1.12   988.12     0  04:01        1.12
  16                   JUNCTION     0.11     1.14   986.14     0  04:01        1.14
  17                   JUNCTION     0.12     1.18   981.18     0  04:03        1.17
  19                   JUNCTION     0.04     0.25  1010.25     0  04:00        0.25
  20                   JUNCTION     0.04     0.26  1005.26   346  02:01        0.26
  21                   JUNCTION     1.08     1.66   991.66     0  04:02        1.66
  22                   JUNCTION     0.10     0.87   987.87     0  04:00        0.87
  23                   JUNCTION     0.04     0.38   990.38     0  04:00        0.38
  24                   JUNCTION     0.12     1.25   985.25     0  04:02        1.24
  9                    JUNCTION     0.04     0.56  1000.56     0  04:00        0.56
  18                   OUTFALL      0.11     1.18   976.18     0  04:03        1.17
  
  
  *******************
  Node Inflow Summary
  *******************
  
  -------------------------------------------------------------------------------------------------
                                  Maximum  Maximum                  Lateral       Total        Flow
                                  Lateral    Total  Time of Max      Inflow      Inflow     Balance
                                   Inflow   Inflow   Occurrence      Volume      Volume       Error
  Node                 Type           CFS      CFS  days hr:min    10^6 gal    10^6 gal     Percent
  -------------------------------------------------------------------------------------------------
  10                   JUNCTION      4.38     8.89     0  04:00        5.81        11.6       0.016
  13                   JUNCTION      2.55     2.55     0  04:00        5.64        5.64      -0.000
  14                   JUNCTION      0.24     2.73     0  04:00        5.45        11.1       0.005
  15                   JUNCTION      6.12     8.80     0  04:00        6.02        17.1      -0.000
  16                   JUNCTION      0.24    18.35     0  04:01        5.45          63       0.003
  17                   JUNCTION      1.33    21.57     0  04:02       0.108        74.2      -0.003
  19                   JUNCTION      0.95     0.95   346  02:00        8.92        8.92       0.009
  20                   JUNCTION      0.95     1.90   346  02:00        8.88        17.8      -0.000
  21                   JUNCTION      0.17     6.90     0  04:01        5.44        34.8      -0.020
  22                   JUNCTION      2.55     9.40     0  04:00        5.64        40.5       0.000
  23                   JUNCTION      1.73     1.73     0  04:00        5.59        5.59      -0.009
  24                   JUNCTION      0.33    20.30     0  04:01        5.47        74.1      -0.002
  9                    JUNCTION      4.51     4.51     0  04:00        5.83        5.83      -0.001
  18                   OUTFALL       0.00    21.56     0  04:03           0        74.2       0.000
  
  
  **********************
  Node Surcharge Summary
  **********************
  
  Surcharging occurs when water rises above the top of the highest conduit.
  ---------------------------------------------------------------------
                                               Max. Height   Min. Depth
                                   Hours       Above Crown    Below Rim
  Node                 Type      Surcharged           Feet         Feet
  ---------------------------------------------------------------------
  10                   JUNCTION        1.92          1.500        0.000
  
  
  *********************
  Node Flooding Summary
  *********************
  
  Flooding refers to all water that overflows a node, whether it ponds or not.
  --------------------------------------------------------------------------
                                                             Total   Maximum
                                 Maximum   Time of Max       Flood    Ponded
                        Hours       Rate    Occurrence      Volume     Depth
  Node                 Flooded       CFS   days hr:min    10^6 gal      Feet
  --------------------------------------------------------------------------
  10                      1.78      3.10      0  04:00       0.068     0.000
  
  
  ***********************
  Outfall Loading Summary
  ***********************
  
  ---------------------------------------------------------------------------------------
                         Flow       Avg       Max       Total         Total         Total
                         Freq      Flow      Flow      Volume           TSS          LEAD
  Outfall Node           Pcnt       CFS       CFS    10^6 gal           lbs           lbs
  ---------------------------------------------------------------------------------------
  18                    79.01      0.42     21.56      74.203       428.928         0.086
  ---------------------------------------------------------------------------------------
  System                79.01      0.42     21.56      74.203       428.928         0.086
  
  
  ********************
  Link Flow Summary
  ********************
  
  -----------------------------------------------------------------------------
                                 Maximum  Time of Max   Maximum    Max/    Max/
                                  |Flow|   Occurrence   |Veloc|    Full    Full
  Link                 Type          CFS  days hr:min    ft/sec    Flow   Depth
  -----------------------------------------------------------------------------
  1                    CONDUIT      4.51     0  04:00      3.60    0.30    0.69
  10                   CONDUIT     21.56     0  04:03     11.16    0.66    0.59
  11                   CONDUIT      2.54     0  04:00      5.69    0.17    0.30
  12                   CONDUIT      2.71     0  04:01      2.81    0.23    0.54
  13                   CONDUIT      8.78     0  04:01      6.13    0.91    0.76
  14                   CONDUIT      1.73     0  04:00      2.99    0.30    0.69
  15                   CONDUIT     18.34     0  04:02      9.35    0.62    0.60
  16                   CONDUIT     20.29     0  04:02     10.15    0.69    0.61
  4                    CONDUIT      0.95   346  02:01      6.83    0.13    0.25
  5                    CONDUIT      1.89   346  02:01      3.63    0.15    0.63
  6                    CONDUIT      5.78     0  03:21      7.42    1.25    0.97
  7                    CONDUIT      6.90     0  04:03      7.64    0.23    0.33
  8                    CONDUIT      9.39     0  04:00      6.07    0.39    0.50
  
  
  ***************************
  Flow Classification Summary
  ***************************
  
  -------------------------------------------------------------------------------------
                      Adjusted    ---------- Fraction of Time in Flow Class ---------- 
                       /Actual         Up    Down  Sub   Sup   Up    Down  Norm  Inlet 
  Conduit               Length    Dry  Dry   Dry   Crit  Crit  Crit  Crit  Ltd   Ctrl  
  -------------------------------------------------------------------------------------
  1                       1.17   0.06  0.04  0.00  0.83  0.07  0.00  0.00  0.97  0.00
  10                      1.39   0.11  0.04  0.00  0.05  0.81  0.00  0.00  0.31  0.00
  11                      1.17   0.06  0.00  0.00  0.63  0.30  0.00  0.00  0.99  0.00
  12                      1.02   0.18  0.09  0.00  0.40  0.32  0.00  0.00  0.99  0.00
  13                      1.00   0.01  0.17  0.00  0.81  0.00  0.00  0.00  1.00  0.00
  14                      1.00   0.08  0.16  0.00  0.76  0.00  0.00  0.00  1.00  0.00
  15                      5.22   0.00  0.01  0.00  0.20  0.78  0.00  0.00  0.90  0.00
  16                      1.30   0.06  0.01  0.00  0.15  0.78  0.00  0.00  0.10  0.00
  4                       2.25   0.02  0.03  0.00  0.17  0.77  0.00  0.00  0.81  0.00
  5                       3.28   0.00  0.05  0.00  0.95  0.00  0.00  0.00  1.00  0.00
  6                       1.00   0.00  0.10  0.00  0.28  0.62  0.00  0.00  0.97  0.00
  7                       1.74   0.00  0.00  0.00  0.00  0.00  0.00  1.00  0.00  0.00
  8                       1.57   0.01  0.07  0.00  0.15  0.77  0.00  0.00  0.79  0.00
  
  
  *************************
  Conduit Surcharge Summary
  *************************
  
  ----------------------------------------------------------------------------
                                                           Hours        Hours 
                         --------- Hours Full --------   Above Full   Capacity
  Conduit                Both Ends  Upstream  Dnstream   Normal Flow   Limited
  ----------------------------------------------------------------------------
  1                           0.01      0.01      1.92      0.01         0.01
  14                          0.01      0.01      1.95      0.01         0.01
  5                           0.01      0.01   8734.28      0.01         0.01
  6                           0.01      2.15      0.01      2.29         0.01
  
  
  ***************************
  Link Pollutant Load Summary
  ***************************
  
  ------------------------------------------------
                                 TSS          LEAD
  Link                           lbs           lbs
  ------------------------------------------------
  1                           49.388         0.010
  10                         428.928         0.086
  11                          24.912         0.005
  12                          25.018         0.005
  13                          94.990         0.019
  14                          67.552         0.014
  15                         304.258         0.061
  16                         371.766         0.074
  4                           26.166         0.005
  5                           25.987         0.005
  6                          135.401         0.027
  7                          161.194         0.032
  8                          209.703         0.042
  

  Analysis begun on:  Fri Mar  6 15:00:43 2026
  Analysis ended on:  Fri Mar  6 15:00:48 2026
  Total elapsed time: 00:00:05