
  EPA STORM WATER MANAGEMENT MODEL - VERSION 5.2 (Build 5.2.4)
  ------------------------------------------------------------

  
  ****************
  Analysis Options
  ****************
  Flow Units ............... CFS
  Process Models:
    Rainfall/Runoff ........ NO
    RDII ................... NO
    Snowmelt ............... NO
    Groundwater ............ NO
    Flow Routing ........... YES
    Ponding Allowed ........ NO
    Water Quality .......... NO
  Flow Routing Method ...... DYNWAVE
  Surcharge Method ......... EXTRAN
  Starting Date ............ 01/01/2011 00:00:00
  Ending Date .............. 01/01/2011 00:06:00
  Antecedent Dry Days ...... 5.0
  Report Time Step ......... 00:00:10
  Routing Time Step ........ 10.00 sec
  Variable Time Step ....... NO
  Maximum Trials ........... 8
  Number of Threads ........ 1
  Head Tolerance ........... 0.001000 ft
  
  
  **************************        Volume        Volume
  Flow Routing Continuity        acre-feet      10^6 gal
  **************************     ---------     ---------
  Dry Weather Inflow .......         0.821         0.267
  Wet Weather Inflow .......         0.000         0.000
  Groundwater Inflow .......         0.000         0.000
  RDII Inflow ..............         0.000         0.000
  External Inflow ..........         0.000         0.000
  External Outflow .........         0.419         0.137
  Flooding Loss ............         0.243         0.079
  Evaporation Loss .........         0.000         0.000
  Exfiltration Loss ........         0.000         0.000
  Initial Stored Volume ....         0.007         0.002
  Final Stored Volume ......         0.240         0.078
  Continuity Error (%) .....        -8.986
  
  
  *************************
  Highest Continuity Errors
  *************************
  Node MIDDLE (21.43%)
  
  
  ********************************
  Highest Flow Instability Indexes
  ********************************
  Link UPPIPE2 (31)
  Link UPPIPE1 (22)
  Link DOWNPIPE (13)
  
  
  *********************************
  Most Frequent Nonconverging Nodes
  *********************************
  Node OUTFALL (36.11%)
  Node MIDDLE (27.78%)
  Node UPNODE_1 (16.67%)
  
  
  *************************
  Routing Time Step Summary
  *************************
  Minimum Time Step           :     9.00 sec
  Average Time Step           :     9.97 sec
  Maximum Time Step           :    10.00 sec
  % of Time in Steady State   :     0.00
  Average Iterations per Step :     4.72
  % of Steps Not Converging   :    36.11
  
  
  ******************
  Node Depth Summary
  ******************
  
  ---------------------------------------------------------------------------------
                                 Average  Maximum  Maximum  Time of Max    Reported
                                   Depth    Depth      HGL   Occurrence   Max Depth
  Node                 Type         Feet     Feet     Feet  days hr:min        Feet
  ---------------------------------------------------------------------------------
  MIDDLE               JUNCTION     5.03     7.51   106.51     0  00:02        7.51
  UPNODE_1             JUNCTION     3.99    10.00   110.00     0  00:02       10.00
  UPNODE_2             JUNCTION    10.00    10.00   110.00     0  00:00       10.00
  OUTFALL              OUTFALL      2.21     2.60   100.60     0  00:02        2.60
  
  
  *******************
  Node Inflow Summary
  *******************
  
  -------------------------------------------------------------------------------------------------
                                  Maximum  Maximum                  Lateral       Total        Flow
                                  Lateral    Total  Time of Max      Inflow      Inflow     Balance
                                   Inflow   Inflow   Occurrence      Volume      Volume       Error
  Node                 Type           CFS      CFS  days hr:min    10^6 gal    10^6 gal     Percent
  -------------------------------------------------------------------------------------------------
  MIDDLE               JUNCTION      0.00    89.64     0  00:01           0       0.189      27.278
  UPNODE_1             JUNCTION      1.00    35.27     0  00:02     0.00265      0.0146     215.398
  UPNODE_2             JUNCTION    100.00   100.00     0  00:00       0.265       0.265       0.509
  OUTFALL              OUTFALL       0.00    65.92     0  00:02           0       0.137       0.000
  
  
  **********************
  Node Surcharge Summary
  **********************
  
  Surcharging occurs when water rises above the top of the highest conduit.
  ---------------------------------------------------------------------
                                               Max. Height   Min. Depth
                                   Hours       Above Crown    Below Rim
  Node                 Type      Surcharged           Feet         Feet
  ---------------------------------------------------------------------
  MIDDLE               JUNCTION        0.07          4.514        2.486
  UPNODE_1             JUNCTION        0.06          7.000        0.000
  UPNODE_2             JUNCTION        0.10          7.000        0.000
  
  
  *********************
  Node Flooding Summary
  *********************
  
  Flooding refers to all water that overflows a node, whether it ponds or not.
  --------------------------------------------------------------------------
                                                             Total   Maximum
                                 Maximum   Time of Max       Flood    Ponded
                        Hours       Rate    Occurrence      Volume     Depth
  Node                 Flooded       CFS   days hr:min    10^6 gal      Feet
  --------------------------------------------------------------------------
  UPNODE_1                0.01     26.15      0  00:02       0.003     0.000
  UPNODE_2                0.10     35.84      0  00:05       0.078     0.000
  
  
  ***********************
  Outfall Loading Summary
  ***********************
  
  -----------------------------------------------------------
                         Flow       Avg       Max       Total
                         Freq      Flow      Flow      Volume
  Outfall Node           Pcnt       CFS       CFS    10^6 gal
  -----------------------------------------------------------
  OUTFALL              100.00     51.80     65.92       0.137
  -----------------------------------------------------------
  System               100.00     51.80     65.92       0.137
  
  
  ********************
  Link Flow Summary
  ********************
  
  -----------------------------------------------------------------------------
                                 Maximum  Time of Max   Maximum    Max/    Max/
                                  |Flow|   Occurrence   |Veloc|    Full    Full
  Link                 Type          CFS  days hr:min    ft/sec    Flow   Depth
  -----------------------------------------------------------------------------
  DOWNPIPE             CONDUIT     65.92     0  00:02      9.60    2.21    0.93
  UPPIPE1              CONDUIT     34.27     0  00:02      5.29    1.15    1.00
  UPPIPE2              CONDUIT     89.64     0  00:01     21.46    3.01    1.00
  
  
  ***************************
  Flow Classification Summary
  ***************************
  
  -------------------------------------------------------------------------------------
                      Adjusted    ---------- Fraction of Time in Flow Class ---------- 
                       /Actual         Up    Down  Sub   Sup   Up    Down  Norm  Inlet 
  Conduit               Length    Dry  Dry   Dry   Crit  Crit  Crit  Crit  Ltd   Ctrl  
  -------------------------------------------------------------------------------------
  DOWNPIPE                1.00   0.00  0.00  0.00  1.00  0.00  0.00  0.00  0.00  0.00
  UPPIPE1                 1.00   0.00  0.00  0.00  1.00  0.00  0.00  0.00  0.11  0.00
  UPPIPE2                 1.00   0.00  0.00  0.00  0.78  0.22  0.00  0.00  0.00  0.00
  
  
  *************************
  Conduit Surcharge Summary
  *************************
  
  ----------------------------------------------------------------------------
                                                           Hours        Hours 
                         --------- Hours Full --------   Above Full   Capacity
  Conduit                Both Ends  Upstream  Dnstream   Normal Flow   Limited
  ----------------------------------------------------------------------------
  DOWNPIPE                    0.01      0.07      0.01      0.08         0.01
  UPPIPE1                     0.06      0.06      0.07      0.01         0.01
  UPPIPE2                     0.07      0.10      0.07      0.10         0.07
  

  Analysis begun on:  Fri Mar  6 15:00:48 2026
  Analysis ended on:  Fri Mar  6 15:00:48 2026
  Total elapsed time: < 1 sec