
  EPA STORM WATER MANAGEMENT MODEL - VERSION 5.2 (Build 5.2.4)
  ------------------------------------------------------------

  Scenario Run :  BASE 
  
  ERROR 134: Node RH9-D has illegal DUMMY link connections.
  WARNING 02: maximum depth increased for Node 3935

  Analysis begun on:  Fri Mar  6 15:00:48 2026
  Analysis ended on:  Fri Mar  6 15:00:48 2026
  Total elapsed time: < 1 sec