
  EPA STORM WATER MANAGEMENT MODEL - VERSION 5.2 (Build 5.2.4)
  ------------------------------------------------------------

  Scenario Run :  BASE 
  
  ****************
  Analysis Options
  ****************
  Flow Units ............... LPS
  Process Models:
    Rainfall/Runoff ........ NO
    RDII ................... YES
    Snowmelt ............... YES
    Groundwater ............ YES
    Flow Routing ........... YES
    Ponding Allowed ........ NO
    Water Quality .......... YES
  Infiltration Method ...... HORTON
  Flow Routing Method ...... DYNWAVE
  Surcharge Method ......... EXTRAN
  Starting Date ............ 07/15/1977 00:00:00
  Ending Date .............. 07/17/1977 00:00:00
  Antecedent Dry Days ...... 7.0
  Report Time Step ......... 00:30:00
  Wet Time Step ............ 00:01:00
  Dry Time Step ............ 00:01:00
  Routing Time Step ........ 30.00 sec
  Variable Time Step ....... YES
  Maximum Trials ........... 4
  Number of Threads ........ 1
  Head Tolerance ........... 0.005000 m
  
  
  **************************        Volume         Depth
  Runoff Quantity Continuity     hectare-m            mm
  **************************     ---------       -------
  Initial LID Storage ......         0.000         0.000
  Initial Snow Cover .......         0.000         0.000
  Total Precipitation ......         0.000         0.000
  Evaporation Loss .........         0.000         0.000
  Infiltration Loss ........         0.000         0.000
  Surface Runoff ...........         0.000         0.000
  Snow Removed .............         0.000         0.000
  Final Snow Cover .........         0.000         0.000
  Final Storage ............         0.000         0.000
  Continuity Error (%) .....         0.000
  
  
  **************************           TSS            TN
  Runoff Quality Continuity             kg            kg
  **************************    ----------    ----------
  Initial Buildup ..........         0.000         0.000
  Surface Buildup ..........         0.000         0.000
  Wet Deposition ...........         0.000         0.000
  Sweeping Removal .........         0.000         0.000
  Infiltration Loss ........         0.000         0.000
  BMP Removal ..............         0.000         0.000
  Surface Runoff ...........         0.000         0.000
  Remaining Buildup ........         0.000         0.000
  Continuity Error (%) .....         0.000         0.000
  
  
  **************************        Volume         Depth
  Groundwater Continuity         hectare-m            mm
  **************************     ---------       -------
  Initial Storage ..........       252.516      1913.000
  Infiltration .............         0.000         0.000
  Upper Zone ET ............         0.102         0.769
  Lower Zone ET ............         0.162         1.226
  Deep Percolation .........        29.774       225.562
  Groundwater Flow .........         0.301         2.277
  Final Storage ............       222.170      1683.108
  Continuity Error (%) .....         0.003
  
  
  **************************        Volume        Volume
  Flow Routing Continuity        hectare-m      10^6 ltr
  **************************     ---------     ---------
  Dry Weather Inflow .......         0.000         0.000
  Wet Weather Inflow .......         0.000         0.000
  Groundwater Inflow .......         0.301         3.006
  RDII Inflow ..............         0.000         0.000
  External Inflow ..........         0.035         0.346
  External Outflow .........         0.000         0.000
  Flooding Loss ............         0.000         0.000
  Evaporation Loss .........         0.000         0.004
  Exfiltration Loss ........         0.000         0.000
  Initial Stored Volume ....         0.000         0.000
  Final Stored Volume ......         0.348         3.480
  Continuity Error (%) .....        -3.924
  
  
  **************************           TSS            TN
  Quality Routing Continuity            kg            kg
  **************************    ----------    ----------
  Dry Weather Inflow .......         0.000         0.000
  Wet Weather Inflow .......         0.000         0.000
  Groundwater Inflow .......         0.000         0.000
  RDII Inflow ..............         0.000         0.000
  External Inflow ..........         0.000         0.000
  External Outflow .........         0.000         0.000
  Flooding Loss ............         0.000         0.000
  Exfiltration Loss ........         0.000         0.000
  Mass Reacted .............         0.000         0.000
  Initial Stored Mass ......         0.000         0.000
  Final Stored Mass ........         0.000         0.000
  Continuity Error (%) .....         0.000         0.000
  
  
  *************************
  Highest Continuity Errors
  *************************
  Node P005 (26.30%)
  
  
  ***************************
  Time-Step Critical Elements
  ***************************
  None
  
  
  ********************************
  Highest Flow Instability Indexes
  ********************************
  All links are stable.
  
  
  *********************************
  Most Frequent Nonconverging Nodes
  *********************************
  Convergence obtained at all time steps.
  
  
  *************************
  Routing Time Step Summary
  *************************
  Minimum Time Step           :     7.20 sec
  Average Time Step           :    29.99 sec
  Maximum Time Step           :    30.00 sec
  % of Time in Steady State   :     0.00
  Average Iterations per Step :     2.00
  % of Steps Not Converging   :     0.00
  Time Step Frequencies       :
     30.000 - 15.195 sec      :    99.98 %
     15.195 -  7.696 sec      :     0.00 %
      7.696 -  3.898 sec      :     0.02 %
      3.898 -  1.974 sec      :     0.00 %
      1.974 -  1.000 sec      :     0.00 %
  
  
  ***************************
  Subcatchment Runoff Summary
  ***************************
  
  ------------------------------------------------------------------------------------------------------------------------------
                            Total      Total      Total      Total     Imperv       Perv      Total       Total     Peak  Runoff
                           Precip      Runon       Evap      Infil     Runoff     Runoff     Runoff      Runoff   Runoff   Coeff
  Subcatchment                 mm         mm         mm         mm         mm         mm         mm    10^6 ltr      LPS
  ------------------------------------------------------------------------------------------------------------------------------
  CA-1                       0.00       0.00       0.00       0.00       0.00       0.00       0.00        0.00     0.00   0.000
  CA-11                      0.00       0.00       0.00       0.00       0.00       0.00       0.00        0.00     0.00   0.000
  CA-7                       0.00       0.00       0.00       0.00       0.00       0.00       0.00        0.00     0.00   0.000
  CA-8                       0.00       0.00       0.00       0.00       0.00       0.00       0.00        0.00     0.00   0.000
  

  ***********************
  LID Performance Summary
  ***********************

  --------------------------------------------------------------------------------------------------------------------
                                         Total      Evap     Infil   Surface    Drain    Initial     Final  Continuity
                                        Inflow      Loss      Loss   Outflow   Outflow   Storage   Storage       Error
  Subcatchment      LID Control             mm        mm        mm        mm        mm        mm        mm           %
  --------------------------------------------------------------------------------------------------------------------
  CA-11             RB                    0.00      0.00      0.00      0.00      0.00      0.00      0.00      100.00
  CA-11             RAINGARDEN            0.00      0.00      0.00      0.00      0.00      5.00      5.00        0.00
  
  *******************
  Groundwater Summary
  *******************
  
  -----------------------------------------------------------------------------------------------------
                                            Total    Total  Maximum  Average  Average    Final    Final
                          Total    Total    Lower  Lateral  Lateral    Upper    Water    Upper    Water
                          Infil     Evap  Seepage  Outflow  Outflow   Moist.    Table   Moist.    Table
  Subcatchment               mm       mm       mm       mm      LPS                 m                 m
  -----------------------------------------------------------------------------------------------------
  CA-1                     0.00     2.01   258.57     0.00     0.00     0.44     1.11     0.41     1.07
  CA-11                    0.00     2.04   181.90    -0.52    -2.00     0.37     4.04     0.37     3.29
  CA-7                     0.00     1.93   239.23    -9.94   127.03     0.39     3.55     0.37     2.84
  CA-8                     0.00     2.01   222.55    19.57   309.53     0.37     3.66     0.37     2.73
  
  
  ****************************
  Subcatchment Washoff Summary
  ****************************
  
  ------------------------------------------------
                                 TSS            TN
  Subcatchment                    kg            kg
  ------------------------------------------------
  CA-1                         0.000         0.000
  CA-11                        0.000         0.000
  CA-7                         0.000         0.000
  CA-8                         0.000         0.000
  ------------------------------------------------
  System                       0.000         0.000
  
  
  ******************
  Node Depth Summary
  ******************
  
  ---------------------------------------------------------------------------------
                                 Average  Maximum  Maximum  Time of Max    Reported
                                   Depth    Depth      HGL   Occurrence   Max Depth
  Node                 Type       Meters   Meters   Meters  days hr:min      Meters
  ---------------------------------------------------------------------------------
  FLOWFROMSUB          JUNCTION     0.02     0.02     5.02     1  12:38        0.02
  OVERLANDNODE         JUNCTION     0.00     0.00    10.00     0  00:00        0.00
  P001                 JUNCTION     0.00     0.00     1.10     0  00:00        0.00
  P009                 JUNCTION     0.24     0.57     4.17     0  10:11        0.57
  OUTLET               OUTFALL      0.00     0.00     0.00     0  00:00        0.00
  P005                 STORAGE      2.02     2.59     4.17     0  10:13        2.59
  
  
  *******************
  Node Inflow Summary
  *******************
  
  -------------------------------------------------------------------------------------------------
                                  Maximum  Maximum                  Lateral       Total        Flow
                                  Lateral    Total  Time of Max      Inflow      Inflow     Balance
                                   Inflow   Inflow   Occurrence      Volume      Volume       Error
  Node                 Type           LPS      LPS  days hr:min    10^6 ltr    10^6 ltr     Percent
  -------------------------------------------------------------------------------------------------
  FLOWFROMSUB          JUNCTION      2.00     2.00     0  00:00       0.173       0.173       0.547
  OVERLANDNODE         JUNCTION      0.00     0.00     0  00:00           0           0       0.000 ltr
  P001                 JUNCTION      0.00     0.00     0  00:00           0           0       0.000 ltr
  P009                 JUNCTION    309.53   309.53     0  01:17        6.46        6.46      -0.829
  OUTLET               OUTFALL       0.00     0.00     0  00:00           0           0       0.000 ltr
  P005                 STORAGE     127.03   434.46     0  01:10       -3.28        7.77      35.691
  
  
  **********************
  Node Surcharge Summary
  **********************
  
  No nodes were surcharged.
  
  
  *********************
  Node Flooding Summary
  *********************
  
  No nodes were flooded.
  
  
  **********************
  Storage Volume Summary
  **********************
  
  ------------------------------------------------------------------------------------------------
                         Average    Avg   Evap  Exfil     Maximum    Max    Time of Max    Maximum
                          Volume   Pcnt   Pcnt   Pcnt      Volume   Pcnt     Occurrence    Outflow
  Storage Unit           1000 mł   Full   Loss   Loss     1000 mł   Full    days hr:min        LPS
  ------------------------------------------------------------------------------------------------
  P005                     2.018   10.1    0.1    0.0       2.593   13.0       0  10:13      37.31
  
  
  ***********************
  Outfall Loading Summary
  ***********************
  
  ---------------------------------------------------------------------------------------
                         Flow       Avg       Max       Total         Total         Total
                         Freq      Flow      Flow      Volume           TSS            TN
  Outfall Node           Pcnt       LPS       LPS    10^6 ltr            kg            kg
  ---------------------------------------------------------------------------------------
  OUTLET                 0.00      0.00      0.00       0.000         0.000         0.000
  ---------------------------------------------------------------------------------------
  System                 0.00      0.00      0.00       0.000         0.000         0.000
  
  
  ********************
  Link Flow Summary
  ********************
  
  -----------------------------------------------------------------------------
                                 Maximum  Time of Max   Maximum    Max/    Max/
                                  |Flow|   Occurrence   |Veloc|    Full    Full
  Link                 Type          LPS  days hr:min     m/sec    Flow   Depth
  -----------------------------------------------------------------------------
  CDT-11               CONDUIT      0.00     0  00:00      0.00    0.00    0.50
  P001                 CONDUIT      0.00     0  00:00      0.00    0.00    0.00
  P005                 CONDUIT      0.00     0  00:00      0.00    0.00    0.43
  P009                 CONDUIT    311.74     0  00:59      0.90    0.04    0.63
  P011                 CONDUIT      1.00     1  12:38      0.18    0.00    0.50
  1                    WEIR         0.00     0  00:00                      0.00
  
  
  ***************************
  Flow Classification Summary
  ***************************
  
  -------------------------------------------------------------------------------------
                      Adjusted    ---------- Fraction of Time in Flow Class ---------- 
                       /Actual         Up    Down  Sub   Sup   Up    Down  Norm  Inlet 
  Conduit               Length    Dry  Dry   Dry   Crit  Crit  Crit  Crit  Ltd   Ctrl  
  -------------------------------------------------------------------------------------
  CDT-11                  1.00   0.00  1.00  0.00  0.00  0.00  0.00  0.00  0.00  0.00
  P001                    1.00   1.00  0.00  0.00  0.00  0.00  0.00  0.00  0.00  0.00
  P005                    1.00   0.00  0.00  0.00  1.00  0.00  0.00  0.00  0.00  0.00
  P009                    1.00   0.00  0.01  0.00  0.99  0.00  0.00  0.00  0.45  0.00
  P011                    1.00   0.00  0.00  0.00  1.00  0.00  0.00  0.00  1.00  0.00
  
  
  *************************
  Conduit Surcharge Summary
  *************************
  
  ----------------------------------------------------------------------------
                                                           Hours        Hours 
                         --------- Hours Full --------   Above Full   Capacity
  Conduit                Both Ends  Upstream  Dnstream   Normal Flow   Limited
  ----------------------------------------------------------------------------
  P009                        0.01      0.01     20.62      0.01         0.01
  P011                        0.01      0.01      9.88      0.01         0.01
  
  
  ***************************
  Link Pollutant Load Summary
  ***************************
  
  ------------------------------------------------
                                 TSS            TN
  Link                            kg            kg
  ------------------------------------------------
  CDT-11                       0.000         0.000
  P001                         0.000         0.000
  P005                         0.000         0.000
  P009                         0.000         0.000
  P011                         0.000         0.000
  1                            0.000         0.000
  

  Analysis begun on:  Fri Mar  6 15:00:48 2026
  Analysis ended on:  Fri Mar  6 15:00:48 2026
  Total elapsed time: < 1 sec