
  EPA STORM WATER MANAGEMENT MODEL - VERSION 5.2 (Build 5.2.4)
  ------------------------------------------------------------

  
  ERROR 205: invalid keyword  at line 1 of input file:
  [VERSION]

  
  ERROR 205: invalid keyword  at line 2 of input file:
  1

  
  ERROR 205: invalid keyword  at line 36 of input file:
  [EXTENDED_OPTIONS]

  
  ERROR 205: invalid keyword  at line 37 of input file:
  Conduit_InvertElevation	YES

  
  ERROR 205: invalid keyword  at line 38 of input file:
  MAX_STEP	2500

  
  ERROR 205: invalid keyword  at line 39 of input file:
  Rim_Elevation	NO

  
  ERROR 205: invalid keyword  at line 40 of input file:
  UnitHydrograph_Type 	Standard

  
  ERROR 205: invalid keyword  at line 344 of input file:
  [COND_QUALITY]


  Analysis begun on:  Fri Mar  6 15:00:48 2026
  Analysis ended on:  Fri Mar  6 15:00:48 2026
  Total elapsed time: < 1 sec