
  EPA STORM WATER MANAGEMENT MODEL - VERSION 5.2 (Build 5.2.4)
  ------------------------------------------------------------

  
  ERROR 235: invalid infiltration parameters at line 76 of [INFIL] section:
  80              	80        	0.3       	7         

  
  ERROR 235: invalid infiltration parameters at line 77 of [INFIL] section:
  85              	85        	0.3       	7         

  
  ERROR 235: invalid infiltration parameters at line 78 of [INFIL] section:
  90              	90        	0.3       	7         

  
  ERROR 235: invalid infiltration parameters at line 79 of [INFIL] section:
  95              	95        	0.3       	7         


  Analysis begun on:  Fri Mar  6 15:00:48 2026
  Analysis ended on:  Fri Mar  6 15:00:48 2026
  Total elapsed time: < 1 sec