
  EPA STORM WATER MANAGEMENT MODEL - VERSION 5.2 (Build 5.2.4)
  ------------------------------------------------------------

  
  ERROR 209: undefined object 81 at line 51 of [SUBCATCHMENT] section:
  100              81               0223067          32.936757 48.804880 1649.700000 5.900000 0.000000                 

  
  ERROR 209: undefined object 85 at line 52 of [SUBCATCHMENT] section:
  104b             85               0145060          8.994114 62.096210 590.700000 2.100000 0.000000                 

  
  ERROR 209: undefined object 89 at line 53 of [SUBCATCHMENT] section:
  108              89               0222036          50.568578 50.390000 1706.500000 5.200000 0.000000                 

  
  ERROR 209: undefined object 91 at line 54 of [SUBCATCHMENT] section:
  110              91               0197169          0.939907 58.035804 981.600000 5.700000 0.000000                 

  
  ERROR 209: undefined object 98 at line 55 of [SUBCATCHMENT] section:
  117              98               0196005          30.360011 51.695170 1491.100000 4.500000 0.000000                 

  
  ERROR 209: undefined object 102 at line 56 of [SUBCATCHMENT] section:
  121              102              0246022          0.187000 49.270000 1359.300000 5.000000 0.000000                 

  
  ERROR 209: undefined object 105 at line 57 of [SUBCATCHMENT] section:
  124              105              0194084          66.142487 47.284728 2150.100000 5.000000 0.000000                 

  
  ERROR 209: undefined object 106 at line 58 of [SUBCATCHMENT] section:
  125_combined     106              0195036          4.185588 48.444844 1115.500000 4.600000 0.000000                 

  
  ERROR 209: undefined object 106 at line 59 of [SUBCATCHMENT] section:
  125_storm        106              0195049          12.186800 48.444844 1115.500000 4.600000 0.000000                 

  
  ERROR 209: undefined object 111 at line 60 of [SUBCATCHMENT] section:
  130              111              0195040          0.133000 48.600000 1157.400000 4.300000 0.000000                 

  
  ERROR 209: undefined object 112 at line 61 of [SUBCATCHMENT] section:
  131b             112              0117021          17.184308 55.205521 800.700000 3.800000 0.000000                 

  
  ERROR 209: undefined object 115 at line 62 of [SUBCATCHMENT] section:
  134              115              0268051          0.289000 41.720000 1668.500000 5.600000 0.000000                 

  
  ERROR 209: undefined object 117 at line 63 of [SUBCATCHMENT] section:
  136              117              0166004          5.193008 43.300000 3681.700000 5.600000 0.000000                 

  
  ERROR 209: undefined object 118 at line 64 of [SUBCATCHMENT] section:
  137              118              0218016          0.163000 48.160000 1275.200000 4.200000 0.000000                 

  
  ERROR 209: undefined object 121 at line 65 of [SUBCATCHMENT] section:
  140              121              0218019          0.315032 45.395460 1736.400000 4.600000 0.000000                 

  
  ERROR 209: undefined object 127 at line 66 of [SUBCATCHMENT] section:
  146              127              0241006          0.463047 40.285971 2081.300000 4.600000 0.000000                 

  
  ERROR 209: undefined object 129 at line 67 of [SUBCATCHMENT] section:
  148              129              0217051          0.169000 38.370000 1297.800000 4.900000 0.000000                 

  
  ERROR 209: undefined object 138 at line 68 of [SUBCATCHMENT] section:
  157              138              0215001          0.079000 55.380000 908.400000 2.400000 0.000000                 

  
  ERROR 209: undefined object 144 at line 69 of [SUBCATCHMENT] section:
  163              144              0724060          0.031228 62.906291 1360.600000 1.800000 0.000000                 

  
  ERROR 209: undefined object 147 at line 70 of [SUBCATCHMENT] section:
  166              147              0215005          0.595001 40.100000 2342.200000 4.300000 0.000000                 

  
  ERROR 209: undefined object 148 at line 71 of [SUBCATCHMENT] section:
  167              148              0165025          8.789014 43.610000 3403.800000 5.200000 0.000000                 

  
  ERROR 209: undefined object 151 at line 72 of [SUBCATCHMENT] section:
  170              151              0708034          0.554001 44.680000 2263.900000 4.600000 0.000000                 

  
  ERROR 209: undefined object 344 at line 73 of [SUBCATCHMENT] section:
  170-A            344              0689003          6.115398 49.484948 702.200000 5.100000 0.000000                 

  
  ERROR 209: undefined object 152 at line 74 of [SUBCATCHMENT] section:
  171              152              0215006          0.194000 42.600000 1381.600000 4.000000 0.000000                 

  
  ERROR 209: undefined object 153 at line 75 of [SUBCATCHMENT] section:
  172              153              0687001          0.391001 37.850000 1921.900000 5.400000 0.000000                 

  
  ERROR 209: undefined object 156 at line 76 of [SUBCATCHMENT] section:
  175              156              0724005G         0.140177 40.310000 2755.500000 5.300000 0.000000                 

  
  ERROR 209: undefined object 157 at line 77 of [SUBCATCHMENT] section:
  176              157              0725012          0.002400 67.310000 1536.400000 1.200000 0.000000                 

  
  ERROR 209: undefined object 163 at line 78 of [SUBCATCHMENT] section:
  182              163              0708034          0.295971 51.295130 1686.400000 4.200000 0.000000                 

  
  ERROR 209: undefined object 166 at line 79 of [SUBCATCHMENT] section:
  185              166              0726043G         0.036006 45.084508 1454.700000 5.900000 0.000000                 

  
  ERROR 209: undefined object 188 at line 80 of [SUBCATCHMENT] section:
  207              188              0708051G         0.130204 56.230000 2661.600000 5.200000 0.000000                 

  
  ERROR 209: undefined object 196 at line 81 of [SUBCATCHMENT] section:
  215              196              0708068          0.111000 62.200000 1064.800000 2.600000 0.000000                 

  
  ERROR 209: undefined object 211 at line 82 of [SUBCATCHMENT] section:
  230              211              0709013G         0.148834 47.950000 2834.300000 4.400000 0.000000                 

  
  ERROR 209: undefined object 235 at line 83 of [SUBCATCHMENT] section:
  254a             235              0692084          0.031703 33.676632 590.300000 1.800000 0.000000                 

  
  ERROR 209: undefined object 235 at line 84 of [SUBCATCHMENT] section:
  254b             235              0693055          0.030420 43.000000 578.900000 2.500000 0.000000                 

  
  ERROR 209: undefined object 237 at line 85 of [SUBCATCHMENT] section:
  256              237              0695011          0.223978 50.045005 1480.900000 3.400000 0.000000                 

  
  ERROR 209: undefined object 242 at line 86 of [SUBCATCHMENT] section:
  261              242              0695011          31.502898 54.175418 2606.400000 4.400000 0.000000                 

  
  ERROR 209: undefined object 257 at line 87 of [SUBCATCHMENT] section:
  276a             257              0720028G         117.708410 54.145415 4842.900000 4.100000 0.000000                 

  
  ERROR 209: undefined object 257 at line 88 of [SUBCATCHMENT] section:
  276b             257              0720028G         10.637953 47.704770 1564.700000 3.600000 0.000000                 

  
  ERROR 209: undefined object 274 at line 89 of [SUBCATCHMENT] section:
  293b             274              0624007          55.268085 48.920000 1779.200000 4.500000 0.000000                 

  
  ERROR 209: undefined object 276 at line 90 of [SUBCATCHMENT] section:
  295              276              0664011          2.153003 43.380000 3371.700000 5.500000 0.000000                 

  
  ERROR 209: undefined object 287 at line 91 of [SUBCATCHMENT] section:
  306              287              0645018          9.537968 42.025797 1079.100000 5.100000 0.000000                 

  
  ERROR 209: undefined object 289 at line 92 of [SUBCATCHMENT] section:
  308a             289              0626023          4.755007 57.190000 1329.200000 4.500000 0.000000                 

  
  ERROR 209: undefined object 289 at line 93 of [SUBCATCHMENT] section:
  308b             289              0626004          0.353001 48.390000 620.900000 3.800000 0.000000                 

  
  ERROR 209: undefined object 290 at line 94 of [SUBCATCHMENT] section:
  309              290              0625041          0.066000 58.160000 832.700000 5.400000 0.000000                 

  
  ERROR 209: undefined object 299 at line 95 of [SUBCATCHMENT] section:
  318              299              0627006          6.813011 47.520000 1210.000000 4.800000 0.000000                 

  
  ERROR 209: undefined object 302 at line 96 of [SUBCATCHMENT] section:
  321              302              0645002          0.122000 36.940000 1111.900000 4.400000 0.000000                 

  
  ERROR 209: undefined object 309 at line 97 of [SUBCATCHMENT] section:
  324              309              0704015          0.060426 24.980000 1855.400000 2.600000 0.000000                 

  
  ERROR 209: undefined object 310 at line 98 of [SUBCATCHMENT] section:
  325              310              0703005          0.946907 35.803580 2913.400000 3.300000 0.000000                 

  
  ERROR 209: undefined object 311 at line 99 of [SUBCATCHMENT] section:
  326              311              0721010          0.167694 35.670000 2997.700000 3.700000 0.000000                 

  
  ERROR 209: undefined object 315 at line 100 of [SUBCATCHMENT] section:
  328              315              0627084          1.696003 47.170000 1298.300000 4.200000 0.000000                 

  
  ERROR 209: undefined object 318 at line 101 of [SUBCATCHMENT] section:
  330              318              0704021          0.203980 18.751875 1417.100000 2.200000 0.000000                 

  
  ERROR 209: undefined object 319 at line 102 of [SUBCATCHMENT] section:
  331              319              0665032          0.189000 36.680000 1364.400000 4.700000 0.000000                 

  
  ERROR 209: undefined object 320 at line 103 of [SUBCATCHMENT] section:
  332              320              0647032          24.123037 47.640000 1669.100000 5.700000 0.000000                 

  
  ERROR 209: undefined object 322 at line 104 of [SUBCATCHMENT] section:
  334              322              0684009          0.090000 33.230000 964.300000 5.500000 0.000000                 

  
  ERROR 209: undefined object 325 at line 105 of [SUBCATCHMENT] section:
  337              325              0225008          0.395040 40.305969 3235.800000 4.900000 0.000000                 

  
  ERROR 209: undefined object 328 at line 106 of [SUBCATCHMENT] section:
  340              328              0224019          0.077000 58.470000 1498.100000 4.900000 0.000000                 

  
  ERROR 209: undefined object 329 at line 107 of [SUBCATCHMENT] section:
  341              329              0224025          5.125008 47.680000 1717.200000 5.500000 0.000000                 

  
  ERROR 209: undefined object 330 at line 108 of [SUBCATCHMENT] section:
  342              330              0247015          0.160016 44.255574 2119.500000 5.100000 0.000000                 

  
  ERROR 209: undefined object 331 at line 109 of [SUBCATCHMENT] section:
  343              331              0223034          0.072000 46.460000 866.000000 5.600000 0.000000                 

  
  ERROR 209: undefined object 332 at line 110 of [SUBCATCHMENT] section:
  344              332              0247047          0.115000 55.310000 1082.100000 4.800000 0.000000                 

  
  ERROR 209: undefined object 333 at line 111 of [SUBCATCHMENT] section:
  345              333              0247012          0.175000 37.440000 2206.400000 4.900000 0.000000                 

  
  ERROR 209: undefined object 334 at line 112 of [SUBCATCHMENT] section:
  346              334              0270023          0.337001 37.830000 3004.900000 4.200000 0.000000                 

  
  ERROR 209: undefined object 335 at line 113 of [SUBCATCHMENT] section:
  347              335              0245018          0.456046 48.095190 2066.500000 4.700000 0.000000                 

  
  ERROR 209: undefined object 336 at line 114 of [SUBCATCHMENT] section:
  348              336              0240003          0.015998 54.075408 426.600000 1.600000 0.000000                 

  
  ERROR 209: undefined object 337 at line 115 of [SUBCATCHMENT] section:
  349              337              0265115          0.026000 44.070000 905.900000 3.300000 0.000000                 

  
  ERROR 209: undefined object 338 at line 116 of [SUBCATCHMENT] section:
  350              338              0240073          0.061000 69.840000 802.500000 1.300000 0.000000                 

  
  ERROR 209: undefined object 339 at line 117 of [SUBCATCHMENT] section:
  351              339              0240006          0.119000 62.580000 1097.300000 3.000000 0.000000                 

  
  ERROR 209: undefined object 340 at line 118 of [SUBCATCHMENT] section:
  352              340              0267007          0.079008 43.485651 1515.000000 4.600000 0.000000                 

  
  ERROR 209: undefined object 341 at line 119 of [SUBCATCHMENT] section:
  353              341              0217005          0.195000 34.830000 1386.500000 5.000000 0.000000                 

  
  ERROR 209: undefined object 342 at line 120 of [SUBCATCHMENT] section:
  354              342              0218027          0.083000 46.230000 929.800000 4.900000 0.000000                 

  
  ERROR 209: undefined object 343 at line 121 of [SUBCATCHMENT] section:
  355              343              0724015          0.075993 69.046905 892.800000 2.100000 0.000000                 

  
  ERROR 209: undefined object 345 at line 122 of [SUBCATCHMENT] section:
  356              345              0689056          11.896018 48.760000 960.000000 5.600000 0.000000                 

  
  ERROR 209: undefined object 346 at line 123 of [SUBCATCHMENT] section:
  357              346              0692084          0.672181 53.820000 2480.000000 2.900000 0.000000                 

  
  ERROR 209: undefined object 369 at line 124 of [SUBCATCHMENT] section:
  380              369              0720028G         64.069099 44.800000 3638.600000 3.300000 0.000000                 

  
  ERROR 209: undefined object 370 at line 125 of [SUBCATCHMENT] section:
  381              370              0665004          0.263000 42.900000 1596.100000 5.700000 0.000000                 

  
  ERROR 209: undefined object 372 at line 126 of [SUBCATCHMENT] section:
  382              372              0645008          0.044996 22.632263 694.500000 4.800000 0.000000                 

  
  ERROR 209: undefined object 373 at line 127 of [SUBCATCHMENT] section:
  383              373              0665004          13.174020 36.920000 1730.100000 4.800000 0.000000                 

  
  ERROR 209: undefined object 374 at line 128 of [SUBCATCHMENT] section:
  384              374              0665010          0.031003 40.775922 583.900000 7.000000 0.000000                 

  
  ERROR 209: undefined object 32 at line 129 of [SUBCATCHMENT] section:
  52               32               0202005          1.301002 42.340000 3382.900000 5.000000 0.000000                 

  
  ERROR 209: undefined object 36 at line 130 of [SUBCATCHMENT] section:
  56a              36               0203012          2.952005 42.630000 4971.700000 4.500000 0.000000                 

  
  ERROR 209: undefined object 36 at line 131 of [SUBCATCHMENT] section:
  56b_sanitary     36               0203012          0.330001 20.020000 1775.300000 5.400000 0.000000                 

  
  ERROR 209: undefined object 415 at line 132 of [SUBCATCHMENT] section:
  BP-10            415              BP-307           0.183399 48.170000 3126.600000 4.400000 0.000000                 

  
  ERROR 209: undefined object 415 at line 133 of [SUBCATCHMENT] section:
  BP-11            415              BP-206           0.222504 40.780000 3423.900000 4.900000 0.000000                 

  
  ERROR 209: undefined object 415 at line 134 of [SUBCATCHMENT] section:
  BP-12            415              BP-298           0.256819 44.784478 3662.800000 3.500000 0.000000                 

  
  ERROR 209: undefined object 415 at line 135 of [SUBCATCHMENT] section:
  BP-13            415              BP-307           0.457271 45.210000 4803.400000 4.000000 0.000000                 

  
  ERROR 209: undefined object 414 at line 136 of [SUBCATCHMENT] section:
  BP-14            414              BP-300           0.290096 33.176682 3878.300000 4.500000 0.000000                 

  
  ERROR 209: undefined object 414 at line 137 of [SUBCATCHMENT] section:
  BP-15            414              BP-309           0.791865 42.610000 6217.800000 4.200000 0.000000                 

  
  ERROR 209: undefined object 414 at line 138 of [SUBCATCHMENT] section:
  BP-16            414              BP-299           0.403411 48.850000 4528.700000 3.800000 0.000000                 

  
  ERROR 209: undefined object 414 at line 139 of [SUBCATCHMENT] section:
  BP-17            414              BP-310           0.140377 33.110000 2757.400000 4.400000 0.000000                 

  
  ERROR 209: undefined object 413 at line 140 of [SUBCATCHMENT] section:
  BP-18            413              BP-311           0.179629 42.200000 3096.200000 4.100000 0.000000                 

  
  ERROR 209: undefined object 413 at line 141 of [SUBCATCHMENT] section:
  BP-19            413              BP-301           0.140987 62.073793 2762.900000 3.100000 0.000000                 

  
  ERROR 209: undefined object 313 at line 142 of [SUBCATCHMENT] section:
  BP-1_01          313              4062001          0.526162 30.280000 5130.900000 3.500000 0.000000                 

  
  ERROR 209: undefined object 377 at line 143 of [SUBCATCHMENT] section:
  BP-1_03          377              4026001          0.143756 11.520000 2788.400000 4.000000 0.000000                 

  
  ERROR 209: undefined object 377 at line 144 of [SUBCATCHMENT] section:
  BP-1_04          377              4026001          0.256166 36.960000 3658.300000 3.500000 0.000000                 

  
  ERROR 209: undefined object 371 at line 145 of [SUBCATCHMENT] section:
  BP-1_05          371              4067001          0.293348 40.905909 3898.700000 4.800000 0.000000                 

  
  ERROR 209: undefined object 371 at line 146 of [SUBCATCHMENT] section:
  BP-1_06          371              4068001          0.230912 31.963196 3484.300000 3.800000 0.000000                 

  
  ERROR 209: undefined object 313 at line 147 of [SUBCATCHMENT] section:
  BP-1_07          313              4057001          0.279417 23.060000 3810.700000 1.500000 0.000000                 

  
  ERROR 209: undefined object 305 at line 148 of [SUBCATCHMENT] section:
  BP-1_08          305              4025001          1.745094 46.524652 9014.600000 4.700000 0.000000                 

  
  ERROR 209: undefined object 376 at line 149 of [SUBCATCHMENT] section:
  BP-1_09          376              4055001          0.592440 35.816418 5424.900000 5.500000 0.000000                 

  
  ERROR 209: undefined object 306 at line 150 of [SUBCATCHMENT] section:
  BP-1_11          306              4024001          0.602486 49.420000 5468.200000 4.700000 0.000000                 

  
  Maximum error count exceeded.

  Analysis begun on:  Fri Mar  6 15:00:48 2026
  Analysis ended on:  Fri Mar  6 15:00:48 2026
  Total elapsed time: < 1 sec