
  EPA STORM WATER MANAGEMENT MODEL - VERSION 5.2 (Build 5.2.4)
  ------------------------------------------------------------

  WARNING 09: time series interval greater than recording interval for Rain Gage RAINGAGE-1
  WARNING 08: elevation drop exceeds length for Conduit CDT-21
  
  ****************
  Analysis Options
  ****************
  Flow Units ............... CFS
  Process Models:
    Rainfall/Runoff ........ YES
    RDII ................... YES
    Snowmelt ............... NO
    Groundwater ............ NO
    Flow Routing ........... YES
    Ponding Allowed ........ YES
    Water Quality .......... NO
  Flow Routing Method ...... DYNWAVE
  Surcharge Method ......... EXTRAN
  Starting Date ............ 01/01/2002 00:00:00
  Ending Date .............. 01/01/2002 23:00:00
  Antecedent Dry Days ...... 5.0
  Report Time Step ......... 00:05:00
  Routing Time Step ........ 20.00 sec
  Variable Time Step ....... NO
  Maximum Trials ........... 8
  Number of Threads ........ 1
  Head Tolerance ........... 0.005000 ft
  
  
  **********************           Volume        Volume
  Rainfall Dependent I/I        acre-feet      10^6 gal
  **********************        ---------     ---------
  Sewershed Rainfall ......       248.121        80.854
  RDII Produced ...........         3.272         1.066
  RDII Ratio ..............         0.013
  
  
  **************************        Volume        Volume
  Flow Routing Continuity        acre-feet      10^6 gal
  **************************     ---------     ---------
  Dry Weather Inflow .......         0.000         0.000
  Wet Weather Inflow .......         0.000         0.000
  Groundwater Inflow .......         0.000         0.000
  RDII Inflow ..............         3.269         1.065
  External Inflow ..........         0.000         0.000
  External Outflow .........         2.369         0.772
  Flooding Loss ............         0.435         0.142
  Evaporation Loss .........         0.000         0.000
  Exfiltration Loss ........         0.000         0.000
  Initial Stored Volume ....         0.000         0.000
  Final Stored Volume ......         0.470         0.153
  Continuity Error (%) .....        -0.183
  
  
  ********************************
  Highest Flow Instability Indexes
  ********************************
  Link CDT-21 (12)
  Link CDT-35 (6)
  Link CDT-19 (6)
  Link CDT-37 (6)
  Link CDT-23 (3)
  
  
  *********************************
  Most Frequent Nonconverging Nodes
  *********************************
  Node OFALL-10 (11.69%)
  Node JCT-20 (6.98%)
  Node JCT-24 (1.79%)
  Node JCT-26 (1.67%)
  Node JCT-22 (1.45%)
  
  
  *************************
  Routing Time Step Summary
  *************************
  Minimum Time Step           :    20.00 sec
  Average Time Step           :    20.00 sec
  Maximum Time Step           :    20.00 sec
  % of Time in Steady State   :     0.00
  Average Iterations per Step :     2.98
  % of Steps Not Converging   :    11.69
  
  
  ******************
  Node Depth Summary
  ******************
  
  ---------------------------------------------------------------------------------
                                 Average  Maximum  Maximum  Time of Max    Reported
                                   Depth    Depth      HGL   Occurrence   Max Depth
  Node                 Type         Feet     Feet     Feet  days hr:min        Feet
  ---------------------------------------------------------------------------------
  JCT-10               JUNCTION     0.30     2.91   704.31     0  12:35        2.91
  JCT-12               JUNCTION     0.71     4.06   702.33     0  13:00        4.06
  JCT-14               JUNCTION     0.42     2.98   700.62     0  12:20        2.97
  JCT-16               JUNCTION     0.61     3.77   696.31     0  12:15        3.71
  JCT-18               JUNCTION     1.17     4.01   688.28     0  14:38        4.01
  JCT-20               JUNCTION     0.10     0.20   679.67     0  12:35        0.20
  JCT-22               JUNCTION     0.57     5.00   703.76     0  12:20        5.00
  JCT-24               JUNCTION     1.05     5.65   701.89     0  12:30        5.65
  JCT-26               JUNCTION     1.39     6.54   700.78     0  12:30        6.54
  JCT-28               JUNCTION     1.05     4.01   697.63     0  14:00        4.01
  JCT-30               JUNCTION     2.53     4.75   692.77     0  16:26        4.75
  JCT-32               JUNCTION     3.49     6.74   690.47     0  13:30        6.74
  JCT-34               JUNCTION     2.68     4.83   687.58     0  23:00        4.83
  JCT-36               JUNCTION     1.21     5.00   694.06     0  12:10        5.00
  JCT-38               JUNCTION     1.56     4.32   692.43     0  14:10        4.32
  JCT-40               JUNCTION     0.15     2.70   699.63     0  12:30        2.70
  JCT-42               JUNCTION     0.39     5.00   698.17     0  12:20        5.00
  JCT-44               JUNCTION     0.78     4.00   702.29     0  11:18        4.00
  JCT-46               JUNCTION     0.66     3.50   696.26     0  11:10        3.50
  JCT-48               JUNCTION     0.08     0.30   689.93     0  12:31        0.30
  JCT-50               JUNCTION     0.99     4.00   700.49     0  10:51        4.00
  JCT-52               JUNCTION     0.38     3.07   700.01     0  12:20        3.05
  JCT-54               JUNCTION     1.01     5.00   699.26     0  12:15        5.00
  OFALL-10             OUTFALL      0.10     0.20     0.20     0  12:35        0.20
  
  
  *******************
  Node Inflow Summary
  *******************
  
  -------------------------------------------------------------------------------------------------
                                  Maximum  Maximum                  Lateral       Total        Flow
                                  Lateral    Total  Time of Max      Inflow      Inflow     Balance
                                   Inflow   Inflow   Occurrence      Volume      Volume       Error
  Node                 Type           CFS      CFS  days hr:min    10^6 gal    10^6 gal     Percent
  -------------------------------------------------------------------------------------------------
  JCT-10               JUNCTION      0.62     0.62     0  12:30      0.0599      0.0599       0.015
  JCT-12               JUNCTION      0.32     0.94     0  12:31      0.0306       0.126       0.132
  JCT-14               JUNCTION      0.34     0.98     0  12:30      0.0326       0.155       0.030
  JCT-16               JUNCTION      0.32     1.33     0  12:15       0.031       0.228       0.044
  JCT-18               JUNCTION      0.38     1.70     0  12:30      0.0365       0.264      -0.248
  JCT-20               JUNCTION      0.48     3.47     0  12:35      0.0463       0.771      -0.083
  JCT-22               JUNCTION      0.63     0.63     0  12:30      0.0605      0.0605       0.020
  JCT-24               JUNCTION      0.34     0.96     0  12:30       0.033       0.124       0.043
  JCT-26               JUNCTION      0.30     0.82     0  12:30      0.0289       0.136       0.096
  JCT-28               JUNCTION      0.25     1.74     0  12:31      0.0243       0.228      -0.124
  JCT-30               JUNCTION      0.35     2.34     0  12:21      0.0343        0.35       0.194
  JCT-32               JUNCTION      0.29     1.55     0  11:20      0.0278       0.461       0.127
  JCT-34               JUNCTION      0.41     1.82     0  12:35      0.0398       0.491       0.068
  JCT-36               JUNCTION      0.71     0.71     0  12:30      0.0683      0.0683      -0.017
  JCT-38               JUNCTION      0.54     1.14     0  12:20      0.0518       0.119       0.381
  JCT-40               JUNCTION      0.56     0.56     0  12:30       0.054       0.054       0.012
  JCT-42               JUNCTION      0.35     0.91     0  12:31      0.0339      0.0879       0.061
  JCT-44               JUNCTION      0.74     0.81     0  12:35      0.0719      0.0747       0.123
  JCT-46               JUNCTION      0.77     0.77     0  12:30      0.0745      0.0745       0.093
  JCT-48               JUNCTION      0.78     0.78     0  12:30      0.0758      0.0758       0.018
  JCT-50               JUNCTION      0.84     1.28     0  12:35      0.0812      0.0977       0.089
  JCT-52               JUNCTION      0.39     0.39     0  12:30      0.0373      0.0373      -0.026
  JCT-54               JUNCTION      0.32     0.70     0  12:31      0.0308      0.0681       0.115
  OFALL-10             OUTFALL       0.00     3.47     0  12:35           0       0.772       0.000
  
  
  **********************
  Node Surcharge Summary
  **********************
  
  Surcharging occurs when water rises above the top of the highest conduit.
  ---------------------------------------------------------------------
                                               Max. Height   Min. Depth
                                   Hours       Above Crown    Below Rim
  Node                 Type      Surcharged           Feet         Feet
  ---------------------------------------------------------------------
  JCT-10               JUNCTION        2.86          2.406        1.094
  JCT-12               JUNCTION        4.56          3.558        0.000
  JCT-14               JUNCTION        3.16          2.481        2.019
  JCT-16               JUNCTION        3.59          3.266        0.234
  JCT-18               JUNCTION        6.33          3.510        0.000
  JCT-22               JUNCTION        4.42          4.500        0.000
  JCT-24               JUNCTION        5.72          5.149        0.351
  JCT-26               JUNCTION        6.39          6.038        0.462
  JCT-28               JUNCTION        6.00          3.507        0.000
  JCT-30               JUNCTION       13.13          4.249        0.000
  JCT-32               JUNCTION       13.46          6.239        0.000
  JCT-34               JUNCTION       13.54          4.329        0.000
  JCT-36               JUNCTION        7.82          4.500        0.000
  JCT-38               JUNCTION       12.62          3.825        0.000
  JCT-40               JUNCTION        0.92          2.204        1.296
  JCT-42               JUNCTION        2.59          4.500        0.000
  JCT-44               JUNCTION        5.01          3.500        0.000
  JCT-46               JUNCTION        3.86          3.000        0.000
  JCT-50               JUNCTION        5.77          3.500        0.000
  JCT-52               JUNCTION        5.17          2.572        0.928
  JCT-54               JUNCTION        5.73          4.500        0.000
  
  
  *********************
  Node Flooding Summary
  *********************
  
  Flooding refers to all water that overflows a node, whether it ponds or not.
  --------------------------------------------------------------------------
                                                             Total   Maximum
                                 Maximum   Time of Max       Flood    Ponded
                        Hours       Rate    Occurrence      Volume     Depth
  Node                 Flooded       CFS   days hr:min    10^6 gal      Feet
  --------------------------------------------------------------------------
  JCT-12                  2.17      0.27      0  12:20       0.005     0.058
  JCT-18                  6.02      0.51      0  12:30       0.035     0.010
  JCT-22                  0.33      0.01      0  12:35       0.000     1.000
  JCT-28                  4.94      0.64      0  12:35       0.023     0.007
  JCT-30                 12.62      1.62      0  12:31       0.144     0.749
  JCT-32                 13.12      0.40      0  10:24       0.017     2.739
  JCT-34                 12.78      0.81      0  12:35       0.107     0.829
  JCT-36                  0.83      0.11      0  12:35       0.002     1.000
  JCT-38                  6.31      0.63      0  12:30       0.027     0.325
  JCT-42                  0.33      0.02      0  12:35       0.000     1.000
  JCT-44                  2.78      0.81      0  12:35       0.039     1.000
  JCT-46                  3.11      0.74      0  12:31       0.033     1.000
  JCT-50                  4.04      1.28      0  12:35       0.067     1.000
  JCT-54                  0.50      0.04      0  12:31       0.000     1.000
  
  
  ***********************
  Outfall Loading Summary
  ***********************
  
  -----------------------------------------------------------
                         Flow       Avg       Max       Total
                         Freq      Flow      Flow      Volume
  Outfall Node           Pcnt       CFS       CFS    10^6 gal
  -----------------------------------------------------------
  OFALL-10              78.70      1.58      3.47       0.772
  -----------------------------------------------------------
  System                78.70      1.58      3.47       0.772
  
  
  ********************
  Link Flow Summary
  ********************
  
  -----------------------------------------------------------------------------
                                 Maximum  Time of Max   Maximum    Max/    Max/
                                  |Flow|   Occurrence   |Veloc|    Full    Full
  Link                 Type          CFS  days hr:min    ft/sec    Flow   Depth
  -----------------------------------------------------------------------------
  CDT-11               CONDUIT      0.62     0  12:31      3.16    0.80    1.00
  CDT-13               CONDUIT      0.77     0  13:55      3.90    1.96    1.00
  CDT-15               CONDUIT      0.98     0  12:35      5.23    0.92    1.00
  CDT-17               CONDUIT      1.33     0  12:15      6.77    0.98    1.00
  CDT-19               CONDUIT      1.20     0  12:35      8.48    1.15    0.70
  CDT-21               CONDUIT      3.47     0  12:35    >50.00    0.33    0.39
  CDT-23               CONDUIT      0.62     0  12:35      3.15    0.87    1.00
  CDT-25               CONDUIT      0.58     0  10:51      2.96    0.84    1.00
  CDT-27               CONDUIT      0.82     0  12:31      4.16    2.26    1.00
  CDT-29               CONDUIT      1.12     0  11:26      5.69    0.99    1.00
  CDT-31               CONDUIT      0.98     0  10:23      4.99    0.94    1.00
  CDT-33               CONDUIT      1.42     0  13:00      7.23    1.86    1.00
  CDT-35               CONDUIT      1.01     0  16:56      7.76    1.29    0.70
  CDT-37               CONDUIT      0.61     0  12:11      3.13    1.40    1.00
  CDT-39               CONDUIT      0.59     0  11:21      3.02    0.77    1.00
  CDT-41               CONDUIT      0.56     0  12:31      3.02    0.62    1.00
  CDT-43               CONDUIT      0.89     0  12:21      4.52    1.07    1.00
  CDT-45               CONDUIT      0.35     0  11:16      1.76    7.06    1.00
  CDT-47               CONDUIT      0.33     0  11:10      1.69    1.76    1.00
  CDT-49               CONDUIT      0.78     0  12:31      7.98    0.61    0.50
  CDT-51               CONDUIT      0.44     0  12:35      2.24    2.37    1.00
  CDT-53               CONDUIT      0.39     0  12:31      2.24    0.52    1.00
  CDT-55               CONDUIT      0.67     0  12:16      3.40    1.61    1.00
  
  
  ***************************
  Flow Classification Summary
  ***************************
  
  -------------------------------------------------------------------------------------
                      Adjusted    ---------- Fraction of Time in Flow Class ---------- 
                       /Actual         Up    Down  Sub   Sup   Up    Down  Norm  Inlet 
  Conduit               Length    Dry  Dry   Dry   Crit  Crit  Crit  Crit  Ltd   Ctrl  
  -------------------------------------------------------------------------------------
  CDT-11                  1.00   0.08  0.00  0.00  0.91  0.01  0.00  0.00  0.77  0.00
  CDT-13                  1.00   0.09  0.00  0.00  0.36  0.55  0.00  0.00  0.00  0.00
  CDT-15                  1.00   0.09  0.00  0.00  0.14  0.77  0.00  0.00  0.76  0.00
  CDT-17                  1.00   0.09  0.00  0.00  0.21  0.70  0.00  0.00  0.69  0.00
  CDT-19                  1.00   0.08  0.00  0.00  0.01  0.91  0.00  0.00  0.00  0.00
  CDT-21                  1.00   0.12  0.08  0.00  0.05  0.75  0.00  0.00  0.08  0.00
  CDT-23                  1.00   0.08  0.00  0.00  0.90  0.01  0.00  0.00  0.69  0.00
  CDT-25                  1.00   0.09  0.00  0.00  0.91  0.00  0.00  0.00  0.65  0.00
  CDT-27                  1.00   0.09  0.00  0.00  0.56  0.35  0.00  0.00  0.00  0.00
  CDT-29                  1.00   0.09  0.00  0.00  0.57  0.35  0.00  0.00  0.63  0.00
  CDT-31                  1.00   0.09  0.00  0.00  0.59  0.32  0.00  0.00  0.33  0.00
  CDT-33                  1.00   0.08  0.00  0.00  0.60  0.31  0.00  0.00  0.32  0.00
  CDT-35                  1.00   0.08  0.00  0.00  0.01  0.91  0.00  0.00  0.00  0.00
  CDT-37                  1.00   0.08  0.00  0.00  0.92  0.00  0.00  0.00  0.02  0.00
  CDT-39                  1.00   0.08  0.00  0.00  0.91  0.01  0.00  0.00  0.34  0.00
  CDT-41                  1.00   0.08  0.00  0.00  0.14  0.77  0.00  0.00  0.85  0.00
  CDT-43                  1.00   0.09  0.00  0.00  0.90  0.02  0.00  0.00  0.73  0.00
  CDT-45                  1.00   0.08  0.00  0.00  0.92  0.00  0.00  0.00  0.00  0.00
  CDT-47                  1.00   0.08  0.00  0.00  0.92  0.00  0.00  0.00  0.00  0.00
  CDT-49                  1.00   0.08  0.00  0.00  0.00  0.91  0.00  0.00  0.62  0.00
  CDT-51                  1.00   0.08  0.00  0.00  0.92  0.00  0.00  0.00  0.00  0.00
  CDT-53                  1.00   0.09  0.00  0.00  0.91  0.00  0.00  0.00  0.68  0.00
  CDT-55                  1.00   0.09  0.00  0.00  0.91  0.00  0.00  0.00  0.63  0.00
  
  
  *************************
  Conduit Surcharge Summary
  *************************
  
  ----------------------------------------------------------------------------
                                                           Hours        Hours 
                         --------- Hours Full --------   Above Full   Capacity
  Conduit                Both Ends  Upstream  Dnstream   Normal Flow   Limited
  ----------------------------------------------------------------------------
  CDT-11                      2.86      2.86      4.56      0.01         0.01
  CDT-13                      3.16      4.56      3.16      4.78         3.16
  CDT-15                      3.16      3.16      3.59      0.01         0.01
  CDT-17                      3.59      3.59      6.31      0.01         0.01
  CDT-19                      0.01      6.31      0.01      6.24         0.01
  CDT-23                      4.43      4.43      5.72      0.01         0.01
  CDT-25                      5.72      5.72      6.39      0.01         0.01
  CDT-27                      5.98      6.39      6.00      5.68         5.16
  CDT-29                      6.00      6.00     13.13      0.01         0.01
  CDT-31                     13.13     13.13     13.46      0.01         0.01
  CDT-33                     13.46     13.46     13.54     13.36        13.36
  CDT-35                      0.01     13.54      0.01     13.43         0.01
  CDT-37                      7.82      7.82     12.62      1.84         1.84
  CDT-39                     12.62     12.62     13.46      0.01         0.01
  CDT-41                      0.92      0.92      2.59      0.01         0.01
  CDT-43                      2.59      2.59     13.13      0.59         0.59
  CDT-45                      4.55      5.01      4.55      8.12         2.37
  CDT-47                      3.59      3.86      3.59      2.61         1.59
  CDT-51                      5.72      5.77      5.72      2.79         0.91
  CDT-53                      5.17      5.17      5.73      0.01         0.01
  CDT-55                      5.73      5.73      6.00      2.00         2.01
  

  Analysis begun on:  Fri Mar  6 15:00:48 2026
  Analysis ended on:  Fri Mar  6 15:00:48 2026
  Total elapsed time: < 1 sec