
  EPA STORM WATER MANAGEMENT MODEL - VERSION 5.2 (Build 5.2.4)
  ------------------------------------------------------------

  WARNING 04: minimum elevation drop used for Conduit CDT-310
  WARNING 04: minimum elevation drop used for Conduit CDT-310-1
  WARNING 04: minimum elevation drop used for Conduit CDT-31A1D
  WARNING 04: minimum elevation drop used for Conduit CDT-31A2D
  WARNING 04: minimum elevation drop used for Conduit CDT-31A3D
  WARNING 04: minimum elevation drop used for Conduit CDT-31A4D
  WARNING 04: minimum elevation drop used for Conduit CDT-31A5D
  WARNING 04: minimum elevation drop used for Conduit CDT-31F1D
  WARNING 04: minimum elevation drop used for Conduit CDT-31F2
  WARNING 04: minimum elevation drop used for Conduit CDT-31F21D
  WARNING 04: minimum elevation drop used for Conduit CDT-31F22
  WARNING 04: minimum elevation drop used for Conduit CDT-331AD
  WARNING 04: minimum elevation drop used for Conduit CDT-35
  WARNING 04: minimum elevation drop used for Conduit SGP37002000
  WARNING 04: minimum elevation drop used for Conduit SPI30100300
  WARNING 04: minimum elevation drop used for Conduit SPI3010031A
  WARNING 04: minimum elevation drop used for Conduit SPI30100600
  WARNING 04: minimum elevation drop used for Conduit SPI30100700
  WARNING 04: minimum elevation drop used for Conduit SPI30100800
  WARNING 04: minimum elevation drop used for Conduit SPI30101000
  WARNING 04: minimum elevation drop used for Conduit SPI30101300
  WARNING 04: minimum elevation drop used for Conduit SPI30101500
  WARNING 04: minimum elevation drop used for Conduit SPI30101600
  WARNING 04: minimum elevation drop used for Conduit SPI30101700
  WARNING 04: minimum elevation drop used for Conduit SPI30101800
  WARNING 04: minimum elevation drop used for Conduit SPI30101900
  WARNING 04: minimum elevation drop used for Conduit SPI30102000
  WARNING 04: minimum elevation drop used for Conduit SPI30102600
  WARNING 04: minimum elevation drop used for Conduit SPI30102700
  WARNING 04: minimum elevation drop used for Conduit SPI30102800
  WARNING 04: minimum elevation drop used for Conduit SPI30102900
  WARNING 04: minimum elevation drop used for Conduit SPI301031A1
  WARNING 04: minimum elevation drop used for Conduit SPI301031A2
  WARNING 04: minimum elevation drop used for Conduit SPI301031A3
  WARNING 04: minimum elevation drop used for Conduit SPI301031A4
  WARNING 04: minimum elevation drop used for Conduit SPI301031F2
  WARNING 04: minimum elevation drop used for Conduit SPI30104500
  WARNING 04: minimum elevation drop used for Conduit SPI30104600
  WARNING 04: minimum elevation drop used for Conduit SPI30104700
  WARNING 04: minimum elevation drop used for Conduit SPI30109800
  WARNING 04: minimum elevation drop used for Conduit SPI30123000
  WARNING 04: minimum elevation drop used for Conduit SPI30123100
  WARNING 04: minimum elevation drop used for Conduit SPI30123200
  WARNING 04: minimum elevation drop used for Conduit SPI30131F21
  WARNING 04: minimum elevation drop used for Conduit SPI30131F22
  WARNING 04: minimum elevation drop used for Conduit SPI30191200
  WARNING 04: minimum elevation drop used for Conduit SPI30191300
  WARNING 04: minimum elevation drop used for Conduit SPI30191600
  WARNING 04: minimum elevation drop used for Conduit SPI30191800
  WARNING 04: minimum elevation drop used for Conduit SPI30192100
  WARNING 04: minimum elevation drop used for Conduit SPI30192200
  WARNING 04: minimum elevation drop used for Conduit SPI30192300
  WARNING 04: minimum elevation drop used for Conduit SPI30192500
  WARNING 04: minimum elevation drop used for Conduit SPI30192600
  WARNING 04: minimum elevation drop used for Conduit SPI30192800
  WARNING 04: minimum elevation drop used for Conduit SPI30193100
  WARNING 04: minimum elevation drop used for Conduit SPI30193200
  WARNING 04: minimum elevation drop used for Conduit SPI30193300
  WARNING 04: minimum elevation drop used for Conduit SPI301E5001
  WARNING 04: minimum elevation drop used for Conduit SPI301E5003
  WARNING 04: minimum elevation drop used for Conduit SPI301E5004
  WARNING 04: minimum elevation drop used for Conduit SPI301E5005
  WARNING 04: minimum elevation drop used for Conduit SPI301E5006
  WARNING 04: minimum elevation drop used for Conduit SPI301E5007
  WARNING 04: minimum elevation drop used for Conduit SPI301E5008
  WARNING 04: minimum elevation drop used for Conduit SPI301E5009
  WARNING 04: minimum elevation drop used for Conduit SPI301E5010
  WARNING 04: minimum elevation drop used for Conduit SPI301E5011
  WARNING 04: minimum elevation drop used for Conduit SPI301E5012
  WARNING 04: minimum elevation drop used for Conduit SPI301E5013
  WARNING 04: minimum elevation drop used for Conduit SPI301E5014
  WARNING 04: minimum elevation drop used for Conduit SPI301E5015
  WARNING 04: minimum elevation drop used for Conduit SPI301E5016
  WARNING 04: minimum elevation drop used for Conduit SPI301E5017
  WARNING 04: minimum elevation drop used for Conduit SPI301E5018
  WARNING 04: minimum elevation drop used for Conduit SPI301E5019
  WARNING 04: minimum elevation drop used for Conduit SPI301E5020
  WARNING 04: minimum elevation drop used for Conduit SPI301E5021
  WARNING 04: minimum elevation drop used for Conduit SPI37006500
  WARNING 04: minimum elevation drop used for Conduit SPI37006600
  WARNING 04: minimum elevation drop used for Conduit SPI37006700
  WARNING 04: minimum elevation drop used for Conduit SPI37006800
  WARNING 04: minimum elevation drop used for Conduit SPI37006900
  WARNING 04: minimum elevation drop used for Conduit SPI37007000
  WARNING 04: minimum elevation drop used for Conduit SPI37007200
  WARNING 04: minimum elevation drop used for Conduit SPI37007300
  WARNING 04: minimum elevation drop used for Conduit SPI37007400
  WARNING 04: minimum elevation drop used for Conduit SPI37007500
  WARNING 04: minimum elevation drop used for Conduit SPI37007600
  
  ****************
  Analysis Options
  ****************
  Flow Units ............... GPM
  Process Models:
    Rainfall/Runoff ........ NO
    RDII ................... NO
    Snowmelt ............... NO
    Groundwater ............ NO
    Flow Routing ........... YES
    Ponding Allowed ........ NO
    Water Quality .......... NO
  Flow Routing Method ...... DYNWAVE
  Surcharge Method ......... EXTRAN
  Starting Date ............ 01/01/2002 00:00:00
  Ending Date .............. 01/02/2002 12:00:00
  Antecedent Dry Days ...... 5.0
  Report Time Step ......... 00:00:10
  Routing Time Step ........ 1.00 sec
  Variable Time Step ....... YES
  Maximum Trials ........... 8
  Number of Threads ........ 1
  Head Tolerance ........... 0.000010 ft
  
  
  **************************        Volume        Volume
  Flow Routing Continuity        acre-feet      10^6 gal
  **************************     ---------     ---------
  Dry Weather Inflow .......         1.089         0.355
  Wet Weather Inflow .......         0.000         0.000
  Groundwater Inflow .......         0.000         0.000
  RDII Inflow ..............         0.000         0.000
  External Inflow ..........         0.362         0.118
  External Outflow .........         1.491         0.486
  Flooding Loss ............         0.111         0.036
  Evaporation Loss .........         0.000         0.000
  Exfiltration Loss ........         0.000         0.000
  Initial Stored Volume ....         0.909         0.296
  Final Stored Volume ......         0.715         0.233
  Continuity Error (%) .....         1.801
  
  
  *************************
  Highest Continuity Errors
  *************************
  Node SMH30190700 (-23.48%)
  Node SMH30118370 (-21.69%)
  Node SMH30190600 (-19.05%)
  Node SMH30118160 (-17.17%)
  Node EAC_SMH30100006 (-14.85%)
  
  
  ***************************
  Time-Step Critical Elements
  ***************************
  None
  
  
  ********************************
  Highest Flow Instability Indexes
  ********************************
  Link CDT-31A4D (92)
  Link CDT-31A2D (49)
  Link SPI301031A4 (43)
  Link CDT-31F22 (37)
  Link CDT-31A3D (35)
  
  
  *********************************
  Most Frequent Nonconverging Nodes
  *********************************
  Node OFALL-310 (100.00%)
  Node JCT-31A1 (99.95%)
  Node JCT-31A4 (99.93%)
  Node JCT-31A1V (99.91%)
  Node SFT30193200 (99.91%)
  
  
  *************************
  Routing Time Step Summary
  *************************
  Minimum Time Step           :     0.14 sec
  Average Time Step           :     1.00 sec
  Maximum Time Step           :     1.00 sec
  % of Time in Steady State   :     0.00
  Average Iterations per Step :     8.00
  % of Steps Not Converging   :   100.00
  Time Step Frequencies       :
      1.000 -  0.251 sec      :   100.00 %
      0.251 -  0.063 sec      :     0.00 %
      0.063 -  0.016 sec      :     0.00 %
      0.016 -  0.004 sec      :     0.00 %
      0.004 -  0.001 sec      :     0.00 %
  
  
  ******************
  Node Depth Summary
  ******************
  
  ---------------------------------------------------------------------------------
                                 Average  Maximum  Maximum  Time of Max    Reported
                                   Depth    Depth      HGL   Occurrence   Max Depth
  Node                 Type         Feet     Feet     Feet  days hr:min        Feet
  ---------------------------------------------------------------------------------
  EAC_SMH30100001      JUNCTION     0.15     2.58    -5.75     0  00:00        2.24
  EAC_SMH30100002      JUNCTION     0.03     3.55    -2.56     0  00:00        0.83
  EAC_SMH30100003      JUNCTION     0.04     4.84    -0.46     0  00:00        0.97
  EAC_SMH30100004      JUNCTION     0.04     6.94     2.63     0  00:00        2.03
  EAC_SMH30100005      JUNCTION     0.04     7.32     3.35     0  00:00        2.33
  EAC_SMH30100006      JUNCTION     0.04     7.84     5.50     0  00:00        4.15
  EAC_SMH30100011      JUNCTION     0.12     4.00    -3.53     0  00:00        1.88
  EAC_SMH30100012      JUNCTION     0.13     5.67    -1.00     0  00:00        1.90
  EAC_SMH30100013      JUNCTION     0.12     7.61     2.00     0  00:00        1.37
  EAC_SMH30100014      JUNCTION     0.11     7.72     2.36     0  00:00        1.25
  EAC_SMH30100015      JUNCTION     0.12     7.72     3.14     0  00:00        1.04
  EAC_SMH30100016      JUNCTION     0.11     7.44     3.72     0  00:00        1.01
  EAC_SMH30100019      JUNCTION     0.12     7.26     4.56     0  00:00        1.04
  JCT-310              JUNCTION     8.01     9.78     9.78     0  00:27        9.56
  JCT-310-1            JUNCTION     8.03    11.88    11.88     0  00:27       11.53
  JCT-310-2            JUNCTION     8.29    16.55    16.55     0  14:59       15.61
  JCT-31A              JUNCTION    16.06   108.00   108.00     0  00:00      108.00
  JCT-31A1             JUNCTION    13.16   108.00   108.00     0  00:00       87.89
  JCT-31A1V            JUNCTION    12.61    83.51    83.51     0  00:00       83.41
  JCT-31A2             JUNCTION     5.24    46.18    46.18     0  08:36       46.09
  JCT-31A2V            JUNCTION     5.01    48.62    48.62     0  08:36       47.91
  JCT-31A3             JUNCTION     3.58    54.12    54.12     0  00:00       33.73
  JCT-31A3V            JUNCTION     3.38    46.42    46.42     0  00:00       31.68
  JCT-31A4             JUNCTION     1.43    45.07    45.07     1  04:43       45.03
  JCT-31A4V            JUNCTION     1.43    46.14    46.14     1  04:43       46.00
  JCT-31A5             JUNCTION     0.11    51.97    51.97     0  00:00       43.23
  JCT-31A5V            JUNCTION     0.08    54.48    54.48     0  20:47       52.25
  JCT-31AV             JUNCTION    15.31   104.81   104.81     0  20:56      104.79
  JCT-31F1             JUNCTION     0.28    61.79    61.79     0  00:00       42.14
  JCT-31F2             JUNCTION     3.19    39.68    39.68     0  00:00       37.65
  JCT-31F21            JUNCTION     5.59    36.78    36.78     0  00:00       34.21
  JCT-31F21V           JUNCTION     5.37    17.14    17.14     0  00:00       12.08
  JCT-31F22            JUNCTION     6.23   104.12   104.12     0  00:00       64.56
  JCT-31F22V           JUNCTION     6.08    57.61    57.61     0  00:00       57.58
  JCT-31F2V            JUNCTION     2.65    39.17    39.17     0  00:00       36.74
  SFT30100200          JUNCTION     0.03     0.50     5.50     0  00:00        0.44
  SFT30100300          JUNCTION     0.23     7.31    12.31     0  00:00        4.97
  SFT30100400          JUNCTION     5.24    13.96    13.96     0  00:00       10.03
  SFT30100600          JUNCTION     5.34     8.00     8.00     0  00:00        8.00
  SFT30100700          JUNCTION     5.36    12.55    12.55     0  00:00       11.30
  SFT30100800          JUNCTION     5.36    11.13    11.13     0  00:00       11.09
  SFT30101000          JUNCTION     2.61    39.05    39.05     0  00:00       36.58
  SFT30101300          JUNCTION     5.88    44.69    44.69     0  00:00       44.52
  SFT30101500          JUNCTION     5.58    25.51    25.51     0  00:00       25.43
  SFT30101600          JUNCTION     5.86    43.65    43.65     0  00:00       43.49
  SFT30101700          JUNCTION     6.05    56.03    56.03     0  00:00       55.95
  SFT30101800          JUNCTION     6.05    56.27    56.27     0  00:00       56.23
  SFT30101900          JUNCTION     6.06    56.45    56.45     0  00:00       56.41
  SFT30102000          JUNCTION     6.07    57.28    57.28     0  00:00       57.24
  SFT30102600          JUNCTION    15.03   103.46   103.46     0  20:56      103.38
  SFT30102700          JUNCTION    15.11   104.62   104.62     0  20:56      104.50
  SFT30102800          JUNCTION    15.11   104.48   104.48     0  20:56      104.38
  SFT30102900          JUNCTION    15.14   104.60   104.60     0  20:56      104.51
  SFT30103100          JUNCTION     4.87    48.86    48.86     0  08:36       47.91
  SFT30104500          JUNCTION     0.96    54.18    54.18     0  01:01       28.15
  SFT30104600          JUNCTION     0.89    47.91    47.91     0  01:01       24.49
  SFT30104700          JUNCTION     0.69    18.47    18.47     0  19:12       15.73
  SFT30107200          JUNCTION     0.68    18.07    18.07     0  19:12       15.40
  SFT30109800          JUNCTION     8.89    27.43    27.43     0  20:00       27.33
  SFT30122000          JUNCTION     1.43    46.09    46.09     1  04:43       45.96
  SFT30123000          JUNCTION     3.22    40.29    40.29     0  00:00       29.95
  SFT30123100          JUNCTION     2.57    33.76    33.76     0  21:13       25.39
  SFT30123200          JUNCTION     2.43    40.41    40.41     0  21:13       25.47
  SFT30191000          JUNCTION     0.01     4.25     7.61     0  00:00        0.27
  SFT30191200          JUNCTION    12.34    81.23    81.23     0  00:00       81.07
  SFT30191300          JUNCTION    12.15    79.58    79.58     0  00:00       79.37
  SFT30191600          JUNCTION    12.42    81.96    81.96     0  00:00       81.83
  SFT30191800          JUNCTION     2.13    29.09    29.09     0  21:13       17.21
  SFT30192000          JUNCTION     2.11    28.57    28.57     0  21:13       16.93
  SFT30192100          JUNCTION    12.12    79.35    79.35     0  00:00       79.12
  SFT30192200          JUNCTION    10.33    64.61    64.61     0  00:00       64.41
  SFT30192300          JUNCTION    10.32    64.55    64.55     0  00:00       64.35
  SFT30192500          JUNCTION    12.89    84.28    84.28     0  00:00       83.40
  SFT30192600          JUNCTION    14.04    94.55    94.55     0  17:26       94.53
  SFT30192800          JUNCTION    10.32    64.58    64.58     0  00:00       64.37
  SFT30193100          JUNCTION    12.15    79.63    79.63     0  00:00       79.39
  SFT30193200          JUNCTION    12.14    79.62    79.62     0  00:00       79.40
  SFT30193300          JUNCTION    12.14    79.60    79.60     0  00:00       79.38
  SFT301E5001          JUNCTION     9.96    59.59    59.59     0  00:00       59.31
  SFT301E5002          JUNCTION     0.03     8.83     8.83     0  00:00        4.82
  SFT301E5003          JUNCTION     8.34    21.88    21.88     0  14:59       19.29
  SFT301E5004          JUNCTION     8.89    27.28    27.28     0  20:00       27.20
  SFT301E5005          JUNCTION     8.79    25.22    25.22     0  00:00       25.21
  SFT301E5006          JUNCTION     9.02    31.96    31.96     0  00:00       31.55
  SFT301E5007          JUNCTION     9.11    36.26    36.26     0  00:00       34.98
  SFT301E5008          JUNCTION     9.12    36.44    36.44     0  00:00       35.15
  SFT301E5009          JUNCTION     9.29    41.83    41.83     0  00:00       40.83
  SFT301E5010          JUNCTION     9.40    45.46    45.46     0  00:00       44.66
  SFT301E5011          JUNCTION     9.60    51.64    51.64     0  00:00       51.10
  SFT301E5012          JUNCTION     9.64    52.87    52.87     0  00:00       52.37
  SFT301E5013          JUNCTION     9.65    53.18    53.18     0  00:00       52.68
  SFT301E5014          JUNCTION     9.69    54.07    54.07     0  00:00       53.61
  SFT301E5015          JUNCTION     9.78    55.98    55.98     0  00:00       55.57
  SFT301E5016          JUNCTION     9.97    59.78    59.78     0  00:00       59.50
  SFT301E5017          JUNCTION    10.17    61.38    61.38     0  00:00       61.10
  SFT301E5018          JUNCTION    11.67    76.04    76.04     0  00:38       73.35
  SFT301E5019          JUNCTION    13.99    94.07    94.07     0  00:00       94.05
  SFT301E5020          JUNCTION     0.67    28.29    28.29     0  22:32       23.10
  SFT301E5021          JUNCTION     9.85    57.46    57.46     0  00:00       57.10
  SFT37006500          JUNCTION     0.19    51.75    51.75     0  00:00       30.80
  SFT37006600          JUNCTION     0.16    42.49    42.49     0  00:00       27.34
  SFT37006700          JUNCTION     0.14    29.31    29.31     0  00:00       19.95
  SFT37006800          JUNCTION     0.12    20.10    20.10     0  00:00       12.53
  SFT37006900          JUNCTION     0.11    15.54    15.54     0  00:00        9.22
  SFT37007000          JUNCTION     0.08    10.20    10.20     0  00:00        5.70
  SFT37007100          JUNCTION     0.08     5.65     5.65     0  00:00        0.56
  SFT37007300          JUNCTION     9.55    64.96    64.96     0  00:00       57.00
  SFT37007400          JUNCTION     8.54    34.46    34.46     0  00:00       31.46
  SFT37007500          JUNCTION     0.12    18.13    18.13     0  00:00       11.02
  SFT37007600          JUNCTION     9.71    70.55    70.55     0  00:00       58.07
  SMH30116140          JUNCTION     0.04     2.13    -0.87     0  00:00        0.70
  SMH30116150          JUNCTION     0.05     7.04     4.87     0  00:00        1.27
  SMH30116170          JUNCTION     0.05     5.49     4.33     0  00:00        1.82
  SMH30118160          JUNCTION     0.01    13.29    12.64     0  00:00        1.27
  SMH30118300          JUNCTION     0.09     7.29     5.03     0  00:00        1.60
  SMH30118350          JUNCTION     0.09     7.85     6.60     0  00:00        3.96
  SMH30118360          JUNCTION     0.09     8.00     7.75     0  00:00        6.31
  SMH30118370          JUNCTION     0.01     8.00     8.15     0  00:00        6.58
  SMH30118380          JUNCTION     0.01     8.00     9.40     0  00:00        7.36
  SMH30118390          JUNCTION     0.08     8.00     8.05     0  00:00        6.14
  SMH30118400          JUNCTION     0.07     8.00     9.00     0  00:00        5.53
  SMH30190400          JUNCTION     0.01     8.09     6.51     0  00:00        0.65
  SMH30190600          JUNCTION     0.01     7.74     5.84     0  00:00        0.79
  SMH30190700          JUNCTION     0.01     4.59     1.49     0  00:00        0.67
  SMH30190800          JUNCTION     0.01     3.73    -0.44     0  00:01        0.90
  SMH301E0007          JUNCTION     0.03     8.00     6.78     0  00:00        4.77
  SMH301E0020          JUNCTION     0.10     7.14     5.24     0  00:00        0.93
  SMH37001700          JUNCTION     0.08     6.69     4.23     0  00:00        1.13
  SMH37001800          JUNCTION     0.12     6.05     3.34     0  00:00        0.96
  SMH37001900          JUNCTION     0.07     4.86     2.10     0  00:00        0.64
  SMH37002000          JUNCTION     0.14     3.51     0.34     0  00:00        0.82
  OFALL-310            OUTFALL      8.00     8.00     8.00     0  00:00        8.00
  SLS3010031A          STORAGE      3.98     5.02    -4.38     0  00:03        5.01
  SLS3010031G          STORAGE      4.02     8.05    -6.39     0  00:07        8.05
  SLS301031A1          STORAGE      3.99     6.43    -3.40     0  00:02        6.42
  SLS301031A2          STORAGE      2.75     3.50    -1.41     0  18:18        3.50
  SLS301031A3          STORAGE      3.63     5.50   -10.86     0  00:00        5.50
  SLS301031A4          STORAGE      1.92     2.50    -0.70     0  19:20        2.50
  SLS301031A5          STORAGE      3.17     4.00     0.97     0  12:42        4.00
  SLS301031F1          STORAGE      2.74     3.50    -3.20     0  16:59        3.50
  SLS301031F2          STORAGE      2.27     6.64    -2.30     0  00:03        6.64
  SLS30131F21          STORAGE      1.99     2.50    -1.90     0  16:05        2.50
  SLS30131F22          STORAGE      3.22     4.00    -9.80     0  15:40        4.00
  
  
  *******************
  Node Inflow Summary
  *******************
  
  -------------------------------------------------------------------------------------------------
                                  Maximum  Maximum                  Lateral       Total        Flow
                                  Lateral    Total  Time of Max      Inflow      Inflow     Balance
                                   Inflow   Inflow   Occurrence      Volume      Volume       Error
  Node                 Type           GPM      GPM  days hr:min    10^6 gal    10^6 gal     Percent
  -------------------------------------------------------------------------------------------------
  EAC_SMH30100001      JUNCTION      0.00  1454.76     0  00:00           0      0.0744      -2.678
  EAC_SMH30100002      JUNCTION      0.00   551.87     0  00:00           0     0.00888     -11.220
  EAC_SMH30100003      JUNCTION      0.00   416.96     0  00:00           0     0.00807      -9.179
  EAC_SMH30100004      JUNCTION      0.00   414.74     0  00:00           0     0.00767      -4.987
  EAC_SMH30100005      JUNCTION      0.00   412.14     0  00:00           0     0.00703      -8.294
  EAC_SMH30100006      JUNCTION      0.00   409.75     0  00:00           0     0.00612     -12.931
  EAC_SMH30100011      JUNCTION      0.00   774.49     0  00:02           0      0.0625      -2.954
  EAC_SMH30100012      JUNCTION      0.00   774.85     0  00:02           0      0.0603      -3.480
  EAC_SMH30100013      JUNCTION      0.00   775.12     0  00:02           0      0.0591      -2.062
  EAC_SMH30100014      JUNCTION      0.00   785.04     0  00:00           0      0.0581      -1.705
  EAC_SMH30100015      JUNCTION      0.00   785.49     0  00:01           0      0.0564      -2.825
  EAC_SMH30100016      JUNCTION      0.00   557.69     0  00:01           0      0.0548      -2.816
  EAC_SMH30100019      JUNCTION      0.00   542.38     0  00:01           0      0.0536      -2.241
  JCT-310              JUNCTION      0.00  2401.62     0  00:00           0       0.604      -0.002
  JCT-310-1            JUNCTION      0.00  2401.57     0  00:00           0       0.604       0.019
  JCT-310-2            JUNCTION      0.00  2401.49     0  00:00           0       0.615      -0.014
  JCT-31A              JUNCTION      0.00  1595.37     0  00:21           0       0.154      -0.138
  JCT-31A1             JUNCTION      0.00   976.97     0  21:14           0       0.126      -0.031
  JCT-31A1V            JUNCTION      0.00   976.27     0  21:14           0       0.129      -0.043
  JCT-31A2             JUNCTION      0.00   249.45     0  12:33           0      0.0371      -0.210
  JCT-31A2V            JUNCTION      0.00   219.23     0  12:33           0      0.0378      -0.251
  JCT-31A3             JUNCTION      0.00   391.57     0  21:13           0      0.0833      -0.006
  JCT-31A3V            JUNCTION      0.00   386.04     0  00:00           0      0.0836      -0.027
  JCT-31A4             JUNCTION      0.00   319.07     0  00:00           0      0.0011      -5.743
  JCT-31A4V            JUNCTION      0.00   319.08     0  00:00           0     0.00154      -7.935
  JCT-31A5             JUNCTION      0.00   406.42     1  04:47           0     0.00161      -7.532
  JCT-31A5V            JUNCTION      0.00   406.41     1  04:47           0     0.00174     -11.416
  JCT-31AV             JUNCTION      0.00  1579.44     0  00:21           0       0.146      -0.739
  JCT-31F1             JUNCTION      0.00   525.00     0  03:46           0     0.00393      -1.988
  JCT-31F2             JUNCTION      0.00   439.16     0  16:53           0      0.0522       0.179
  JCT-31F21            JUNCTION      0.00   380.12     0  18:41           0      0.0106      -1.143
  JCT-31F21V           JUNCTION      0.00   380.07     0  18:41           0      0.0112      -0.610
  JCT-31F22            JUNCTION      0.00   750.00     0  00:00           0      0.0247      -0.161
  JCT-31F22V           JUNCTION      0.00   753.33     0  00:00           0      0.0257      -0.811
  JCT-31F2V            JUNCTION      0.00   438.95     0  00:38           0      0.0524      -0.304
  SFT30100200          JUNCTION      0.00   120.72     0  00:00           0      0.0124      -3.991
  SFT30100300          JUNCTION      0.00   170.64     0  16:45           0      0.0184      -1.551
  SFT30100400          JUNCTION      0.00   170.67     0  16:45           0      0.0247       0.021
  SFT30100600          JUNCTION      0.00   797.20     0  00:00           0      0.0241       0.000
  SFT30100700          JUNCTION      0.00   383.32     1  11:34           0      0.0322      -0.215
  SFT30100800          JUNCTION      0.00   796.70     0  00:00           0      0.0456       0.091
  SFT30101000          JUNCTION      0.00   464.74     0  10:56           0      0.0524       1.429
  SFT30101300          JUNCTION      0.00   555.88     0  00:00           0      0.0379       0.060
  SFT30101500          JUNCTION      0.00   555.69     0  00:00           0      0.0385       0.003
  SFT30101600          JUNCTION      0.00   554.69     0  00:00           0      0.0383       0.066
  SFT30101700          JUNCTION      0.00   559.18     0  00:00           0       0.037       0.002
  SFT30101800          JUNCTION      0.00   577.53     0  14:46           0       0.034      -0.544
  SFT30101900          JUNCTION      0.00   756.07     0  00:00           0      0.0303      -0.332
  SFT30102000          JUNCTION      0.00   772.28     0  00:00           0      0.0276      -0.890
  SFT30102600          JUNCTION      0.00   912.22     0  15:22           0       0.196       0.062
  SFT30102700          JUNCTION      0.00   547.14     0  00:21           0      0.0155      -1.899
  SFT30102800          JUNCTION      0.00  1304.21     0  17:48           0       0.194       0.245
  SFT30102900          JUNCTION      0.00  1544.76     1  05:05           0       0.155      -0.811
  SFT30103100          JUNCTION      0.00   205.33     0  00:00           0      0.0394       0.025
  SFT30104500          JUNCTION      0.00   271.12     0  13:21           0      0.0513      -1.108
  SFT30104600          JUNCTION      0.00   293.91     0  12:11           0      0.0519       0.177
  SFT30104700          JUNCTION      0.00   294.33     0  01:01           0      0.0518      -0.438
  SFT30107200          JUNCTION      0.00   280.13     0  20:30           0      0.0543      -0.247
  SFT30109800          JUNCTION      0.00  1594.44     0  21:32           0       0.498       0.016
  SFT30122000          JUNCTION      0.00   319.22     0  00:00           0     0.00164      13.683
  SFT30123000          JUNCTION      0.00   391.72     0  21:13           0      0.0835       0.037
  SFT30123100          JUNCTION      0.00   401.52     0  21:13           0      0.0834       0.002
  SFT30123200          JUNCTION      0.00   410.93     0  21:13           0      0.0837      -0.000
  SFT30191000          JUNCTION      0.00   395.37     0  21:13           0      0.0831      -0.386
  SFT30191200          JUNCTION      0.00  1008.12     0  21:14           0       0.144       0.171
  SFT30191300          JUNCTION      0.00  1001.81     0  21:14           0       0.177      -0.007
  SFT30191600          JUNCTION      0.00   992.50     0  21:14           0       0.136      -0.202
  SFT30191800          JUNCTION      0.00   387.31     0  00:00           0      0.0837      -0.020
  SFT30192000          JUNCTION      0.00   382.31     0  00:00           0      0.0834      -0.013
  SFT30192100          JUNCTION      0.00   851.22     0  00:49           0       0.194       0.103
  SFT30192200          JUNCTION      0.00   866.90     0  00:49           0       0.213       0.086
  SFT30192300          JUNCTION      0.00   905.98     0  00:49           0       0.248       0.182
  SFT30192500          JUNCTION      0.00   911.54     0  15:22           0       0.216       0.590
  SFT30192600          JUNCTION      0.00   913.05     0  15:22           0       0.203       0.114
  SFT30192800          JUNCTION      0.00   156.83     0  13:57           0     0.00506       0.592
  SFT30193100          JUNCTION      0.00     6.04     1  00:02           0    0.000204      25.271
  SFT30193200          JUNCTION      0.00    72.83     0  21:14           0      0.0018      -0.472
  SFT30193300          JUNCTION      0.00   307.52     0  01:27           0      0.0119       0.128
  SFT301E5001          JUNCTION      0.00  1519.50     0  21:23           0       0.467       0.071
  SFT301E5002          JUNCTION      0.00   390.02     0  00:00           0     0.00566      -1.140
  SFT301E5003          JUNCTION      0.00   943.72     0  00:12           0       0.124       0.826
  SFT301E5004          JUNCTION      0.00  1601.65     0  21:32           0       0.501       0.012
  SFT301E5005          JUNCTION      0.00  1608.76     0  21:32           0       0.503       0.010
  SFT301E5006          JUNCTION      0.00  1593.30     0  21:32           0       0.497       0.002
  SFT301E5007          JUNCTION      0.00  1576.96     0  21:23           0       0.493       0.026
  SFT301E5008          JUNCTION      0.00  1572.69     0  21:23           0       0.488       0.032
  SFT301E5009          JUNCTION      0.00  1572.08     0  21:23           0       0.485       0.057
  SFT301E5010          JUNCTION      0.00  1571.28     0  21:23           0       0.484       0.074
  SFT301E5011          JUNCTION      0.00  1568.68     0  21:23           0       0.483       0.147
  SFT301E5012          JUNCTION      0.00  1557.88     0  21:23           0       0.478       0.087
  SFT301E5013          JUNCTION      0.00  1546.58     0  21:23           0       0.471       0.100
  SFT301E5014          JUNCTION      0.00  1542.47     0  21:23           0       0.467       0.400
  SFT301E5015          JUNCTION      0.00  1539.10     0  21:23           0        0.46       0.664
  SFT301E5016          JUNCTION      0.00   953.37     0  01:41           0       0.267       0.930
  SFT301E5017          JUNCTION      0.00   909.47     0  15:22           0       0.222       0.408
  SFT301E5018          JUNCTION      0.00   910.57     0  15:22           0        0.22       1.359
  SFT301E5019          JUNCTION      0.00   911.14     0  15:22           0        0.21       0.152
  SFT301E5020          JUNCTION      0.00   198.73     0  20:30           0     0.00202     -10.294
  SFT301E5021          JUNCTION      0.00  1535.57     0  21:23           0       0.448       0.276
  SFT37006500          JUNCTION      0.00   504.45     0  18:20           0     0.00402      -4.084
  SFT37006600          JUNCTION      0.00   445.48     0  19:44           0     0.00418      -7.719
  SFT37006700          JUNCTION      0.00   371.89     0  00:00           0     0.00453      -8.571
  SFT37006800          JUNCTION      0.00   371.97     0  00:00           0     0.00495      -5.466
  SFT37006900          JUNCTION      0.00   377.83     0  00:00           0     0.00534      -3.129
  SFT37007000          JUNCTION      0.00   382.25     0  00:00           0     0.00552      -2.470
  SFT37007100          JUNCTION      0.00   245.44     0  19:12           0      0.0524      -0.935
  SFT37007300          JUNCTION      0.00   943.68     0  00:12           0       0.121      -0.131
  SFT37007400          JUNCTION      0.00   943.72     0  00:12           0       0.123       0.780
  SFT37007500          JUNCTION      0.00   372.24     0  00:00           0     0.00523      -2.045
  SFT37007600          JUNCTION      0.00   943.67     0  00:12           0       0.119      -0.818
  SMH30116140          JUNCTION      0.00   761.75     0  00:00           0      0.0148      -3.913
  SMH30116150          JUNCTION      0.00   689.43     0  00:00           0      0.0136      -7.613
  SMH30116170          JUNCTION      0.00   586.50     0  00:00           0      0.0129      -5.345
  SMH30118160          JUNCTION      0.00   272.72     0  00:00           0     0.00196     -14.656
  SMH30118300          JUNCTION      0.00   543.20     0  00:00           0      0.0425      -0.720
  SMH30118350          JUNCTION      0.00   541.33     0  00:00           0      0.0419      -1.375
  SMH30118360          JUNCTION      0.00   529.39     0  00:00           0      0.0412      -1.848
  SMH30118370          JUNCTION      0.00   319.39     0  00:00           0     0.00254     -17.825
  SMH30118380          JUNCTION      0.00   319.37     0  00:00           0     0.00107     -61.097
  SMH30118390          JUNCTION      0.00   219.90     0  00:02           0      0.0381       0.100
  SMH30118400          JUNCTION      0.00   205.35     0  00:00           0      0.0387      -3.245
  SMH30190400          JUNCTION      0.00   272.71     0  00:00           0      0.0023      -8.578
  SMH30190600          JUNCTION      0.00   418.05     0  00:00           0     0.00251     -16.005
  SMH30190700          JUNCTION      0.00   453.93     0  00:00           0     0.00299     -19.018
  SMH30190800          JUNCTION      0.00   493.24     0  00:00           0     0.00369     -10.368
  SMH301E0007          JUNCTION      0.00   402.27     0  00:00           0     0.00572      -6.616
  SMH301E0020          JUNCTION      0.00   353.55     0  00:00           0      0.0529      -1.328
  SMH37001700          JUNCTION      0.00   544.80     0  00:00           0      0.0428      -0.291
  SMH37001800          JUNCTION      0.00   549.00     0  00:00           0      0.0429      -0.237
  SMH37001900          JUNCTION      0.00   551.35     0  00:00           0       0.043      -0.259
  SMH37002000          JUNCTION      0.00   521.48     0  00:00           0      0.0432      -0.332
  OFALL-310            OUTFALL       0.00  2401.65     0  00:00           0       0.604       0.000
  SLS3010031A          STORAGE     129.51   585.42     0  00:00        0.11       0.156       0.078
  SLS3010031G          STORAGE      47.77  1478.24     0  00:00      0.0407        0.12      -0.009
  SLS301031A1          STORAGE      43.55  2285.54     0  00:00      0.0371       0.127      -0.075
  SLS301031A2          STORAGE      42.98    42.98     0  18:00      0.0367      0.0374       0.049
  SLS301031A3          STORAGE      62.46    62.46     0  18:00      0.0533       0.147       0.000
  SLS301031A4          STORAGE       0.84     0.84     0  18:00     0.00072     0.00125       0.040
  SLS301031A5          STORAGE       1.67     1.67     0  18:00     0.00142     0.00227       0.060
  SLS301031F1          STORAGE       4.30     4.30     0  18:00     0.00367     0.00441       0.064
  SLS301031F2          STORAGE      42.39  1026.42     0  00:00      0.0361      0.0526      -0.069
  SLS30131F21          STORAGE      12.15    12.15     0  18:00      0.0104      0.0109       0.014
  SLS30131F22          STORAGE      28.46    28.46     0  18:00      0.0243      0.0251       0.024
  
  
  **********************
  Node Surcharge Summary
  **********************
  
  Surcharging occurs when water rises above the top of the highest conduit.
  ---------------------------------------------------------------------
                                               Max. Height   Min. Depth
                                   Hours       Above Crown    Below Rim
  Node                 Type      Surcharged           Feet         Feet
  ---------------------------------------------------------------------
  EAC_SMH30100001      JUNCTION        0.26          1.581        9.689
  EAC_SMH30100002      JUNCTION        0.01          2.717        6.770
  EAC_SMH30100003      JUNCTION        0.01          4.008        5.759
  EAC_SMH30100004      JUNCTION        0.02          6.278        1.716
  EAC_SMH30100005      JUNCTION        0.02          6.654        2.799
  EAC_SMH30100006      JUNCTION        0.03          7.170        0.164
  EAC_SMH30100011      JUNCTION        0.22          2.998        7.972
  EAC_SMH30100012      JUNCTION        0.19          4.670        5.190
  EAC_SMH30100013      JUNCTION        0.12          6.610        2.620
  EAC_SMH30100014      JUNCTION        0.09          6.721        2.179
  EAC_SMH30100015      JUNCTION        0.01          6.724        0.276
  EAC_SMH30100016      JUNCTION        0.01          6.435        0.565
  EAC_SMH30100019      JUNCTION        0.02          6.427        0.740
  JCT-310              JUNCTION       36.00          8.446        0.000
  JCT-310-1            JUNCTION       36.00         10.542        0.000
  JCT-310-2            JUNCTION       36.00         15.549        0.000
  JCT-31A              JUNCTION       36.00        107.500        0.000
  JCT-31A1             JUNCTION       35.99        107.500        0.000
  JCT-31A1V            JUNCTION       36.00         83.015        0.000
  JCT-31A2             JUNCTION       33.61         45.846        0.000
  JCT-31A2V            JUNCTION       33.74         48.286        0.000
  JCT-31A3             JUNCTION       35.99         53.619        0.000
  JCT-31A3V            JUNCTION       36.00         45.917        0.000
  JCT-31A4             JUNCTION       36.00         44.741        0.000
  JCT-31A4V            JUNCTION       35.41         45.641        0.000
  JCT-31A5             JUNCTION        0.10         51.632        0.000
  JCT-31A5V            JUNCTION        0.08         54.148        0.000
  JCT-31AV             JUNCTION       32.18        104.144        0.000
  JCT-31F1             JUNCTION        0.81         61.454        0.000
  JCT-31F2             JUNCTION       32.93         39.343        0.000
  JCT-31F21            JUNCTION       36.00         36.451        0.000
  JCT-31F21V           JUNCTION       36.00         16.636        0.000
  JCT-31F22            JUNCTION       36.00        103.619        0.000
  JCT-31F22V           JUNCTION       35.99         56.946        0.000
  JCT-31F2V            JUNCTION        3.91         38.669        0.000
  SFT30100200          JUNCTION        0.01          0.000        7.500
  SFT30100300          JUNCTION        0.02          6.807        0.693
  SFT30100400          JUNCTION       36.00         13.464        0.000
  SFT30100600          JUNCTION       36.00          7.500        0.000
  SFT30100700          JUNCTION       36.00         12.053        0.000
  SFT30100800          JUNCTION       36.00         10.463        0.000
  SFT30101000          JUNCTION        3.18         38.555        0.000
  SFT30101300          JUNCTION       36.00         44.018        0.000
  SFT30101500          JUNCTION       36.00         24.848        0.000
  SFT30101600          JUNCTION       36.00         42.987        0.000
  SFT30101700          JUNCTION       36.00         55.359        0.000
  SFT30101800          JUNCTION       36.00         55.600        0.000
  SFT30101900          JUNCTION       35.99         55.779        0.000
  SFT30102000          JUNCTION       35.99         56.609        0.000
  SFT30102600          JUNCTION       32.74        102.789        0.000
  SFT30102700          JUNCTION       32.21        103.950        0.000
  SFT30102800          JUNCTION       32.32        103.816        0.000
  SFT30102900          JUNCTION       31.97        103.935        0.000
  SFT30103100          JUNCTION       33.70         48.524        0.000
  SFT30104500          JUNCTION        2.42         53.677        0.000
  SFT30104600          JUNCTION        2.18         47.408        0.000
  SFT30104700          JUNCTION        1.71         17.968        0.000
  SFT30107200          JUNCTION        1.30         17.567        0.000
  SFT30109800          JUNCTION       36.00         26.092        0.000
  SFT30122000          JUNCTION       35.41         45.594        0.000
  SFT30123000          JUNCTION       36.00         39.792        0.000
  SFT30123100          JUNCTION        4.24         33.090        0.000
  SFT30123200          JUNCTION        4.07         39.745        0.000
  SFT30191000          JUNCTION        0.01          3.750        3.750
  SFT30191200          JUNCTION       33.66         80.562        0.000
  SFT30191300          JUNCTION       35.08         78.918        0.000
  SFT30191600          JUNCTION       33.42         81.294        0.000
  SFT30191800          JUNCTION        4.19         28.422        0.000
  SFT30192000          JUNCTION        4.20         27.904        0.000
  SFT30192100          JUNCTION       35.92         78.684        0.000
  SFT30192200          JUNCTION       33.59         63.605        0.000
  SFT30192300          JUNCTION       34.39         63.554        0.000
  SFT30192500          JUNCTION       35.51         83.617        0.000
  SFT30192600          JUNCTION       33.97         93.882        0.000
  SFT30192800          JUNCTION       36.00         63.912        0.000
  SFT30193100          JUNCTION       35.99         79.383        0.000
  SFT30193200          JUNCTION       36.00         79.284        0.000
  SFT30193300          JUNCTION       36.00         79.102        0.000
  SFT301E5001          JUNCTION       32.87         58.260        0.000
  SFT301E5002          JUNCTION        0.01          8.333        0.000
  SFT301E5003          JUNCTION       35.98         20.883        0.000
  SFT301E5004          JUNCTION       36.00         25.950        0.000
  SFT301E5005          JUNCTION       36.00         23.882        0.000
  SFT301E5006          JUNCTION       36.00         30.622        0.000
  SFT301E5007          JUNCTION       36.00         34.923        0.000
  SFT301E5008          JUNCTION       36.00         35.105        0.000
  SFT301E5009          JUNCTION       36.00         40.492        0.000
  SFT301E5010          JUNCTION       36.00         44.129        0.000
  SFT301E5011          JUNCTION       36.00         50.309        0.000
  SFT301E5012          JUNCTION       35.98         51.539        0.000
  SFT301E5013          JUNCTION       35.85         51.845        0.000
  SFT301E5014          JUNCTION       35.80         52.741        0.000
  SFT301E5015          JUNCTION       35.63         54.644        0.000
  SFT301E5016          JUNCTION       35.99         58.782        0.000
  SFT301E5017          JUNCTION       35.98         60.713        0.000
  SFT301E5018          JUNCTION       35.66         75.372        0.000
  SFT301E5019          JUNCTION       34.87         93.405        0.000
  SFT301E5020          JUNCTION        1.23         27.788        0.000
  SFT301E5021          JUNCTION       34.92         56.125        0.000
  SFT37006500          JUNCTION        0.09         51.251        0.000
  SFT37006600          JUNCTION        0.02         41.985        0.000
  SFT37006700          JUNCTION        0.03         28.806        0.000
  SFT37006800          JUNCTION        0.02         19.602        0.000
  SFT37006900          JUNCTION        0.02         15.036        0.000
  SFT37007000          JUNCTION        0.02          9.700        0.000
  SFT37007100          JUNCTION        0.01          5.153        2.347
  SFT37007300          JUNCTION       35.98         64.297        0.000
  SFT37007400          JUNCTION       35.94         33.455        0.000
  SFT37007500          JUNCTION        0.02         17.625        0.000
  SFT37007600          JUNCTION       35.89         69.885        0.000
  SMH30116140          JUNCTION        0.01          1.293        6.204
  SMH30116150          JUNCTION        0.01          6.211        0.955
  SMH30116170          JUNCTION        0.01          4.652        2.545
  SMH30118160          JUNCTION        0.02         12.790        0.000
  SMH30118300          JUNCTION        0.05          6.623        1.871
  SMH30118350          JUNCTION        0.07          7.179        0.155
  SMH30118360          JUNCTION        0.09          7.333        0.000
  SMH30118370          JUNCTION        0.06          7.333        0.000
  SMH30118380          JUNCTION        0.01          7.333        0.000
  SMH30118390          JUNCTION        0.05          7.333        0.000
  SMH30118400          JUNCTION        0.03          7.333        0.000
  SMH30190400          JUNCTION        0.01          7.423        0.481
  SMH30190600          JUNCTION        0.01          7.074        1.020
  SMH30190700          JUNCTION        0.01          3.928        8.186
  SMH30190800          JUNCTION        0.03          3.065        7.599
  SMH301E0007          JUNCTION        0.02          7.333        0.000
  SMH301E0020          JUNCTION        0.01          6.306        0.860
  SMH37001700          JUNCTION        0.02          6.020        2.704
  SMH37001800          JUNCTION        0.12          5.384        3.979
  SMH37001900          JUNCTION        0.01          4.190        4.973
  SMH37002000          JUNCTION        0.14          2.846        6.307
  
  
  *********************
  Node Flooding Summary
  *********************
  
  Flooding refers to all water that overflows a node, whether it ponds or not.
  --------------------------------------------------------------------------
                                                             Total   Maximum
                                 Maximum   Time of Max       Flood    Ponded
                        Hours       Rate    Occurrence      Volume     Depth
  Node                 Flooded       GPM   days hr:min    10^6 gal      Feet
  --------------------------------------------------------------------------
  JCT-31A                 1.63    478.30      0  00:00       0.012   100.000
  JCT-31A1                0.01    178.52      0  00:00       0.000   100.000
  SFT30100600             1.71    796.57      0  00:00       0.024     0.000
  SMH30118160             0.01      1.11      0  00:00       0.000     5.290
  SMH30118360             0.01      3.54      0  00:00       0.000     0.000
  SMH30118380             0.01     83.64      0  00:00       0.000     0.000
  SMH30118400             0.01     47.96      0  00:00       0.000     0.000
  SMH301E0007             0.01     67.14      0  00:00       0.000     0.000
  
  
  **********************
  Storage Volume Summary
  **********************
  
  ------------------------------------------------------------------------------------------------
                         Average    Avg   Evap  Exfil     Maximum    Max    Time of Max    Maximum
                          Volume   Pcnt   Pcnt   Pcnt      Volume   Pcnt     Occurrence    Outflow
  Storage Unit          1000 ftł   Full   Loss   Loss    1000 ftł   Full    days hr:min        GPM
  ------------------------------------------------------------------------------------------------
  SLS3010031A              0.200   24.0    0.0    0.0       0.253   30.2       0  00:03    1595.37
  SLS3010031G              0.316   19.7    0.0    0.0       0.632   39.4       0  00:07     943.67
  SLS301031A1              0.201   22.7    0.0    0.0       0.323   36.5       0  00:02     976.97
  SLS301031A2              0.078   23.3    0.0    0.0       0.099   29.7       0  18:18     249.45
  SLS301031A3              8.282   15.2    0.0    0.0      12.532   23.0       0  00:00     391.57
  SLS301031A4              0.054   15.4    0.0    0.0       0.071   20.1       0  19:20     319.07
  SLS301031A5              0.090   20.4    0.0    0.0       0.113   25.8       0  12:42     406.42
  SLS301031F1              0.078   22.4    0.0    0.0       0.099   28.6       0  16:59     525.00
  SLS301031F2              0.114   15.8    0.0    0.0       0.334   46.4       0  00:03     439.16
  SLS30131F21              0.056   20.8    0.0    0.0       0.071   26.1       0  16:05     380.12
  SLS30131F22              0.091   17.0    0.0    0.0       0.113   21.1       0  15:40     750.00
  
  
  ***********************
  Outfall Loading Summary
  ***********************
  
  -----------------------------------------------------------
                         Flow       Avg       Max       Total
                         Freq      Flow      Flow      Volume
  Outfall Node           Pcnt       GPM       GPM    10^6 gal
  -----------------------------------------------------------
  OFALL-310             99.57    281.38   2401.65       0.604
  -----------------------------------------------------------
  System                99.57    281.38   2401.65       0.604
  
  
  ********************
  Link Flow Summary
  ********************
  
  -----------------------------------------------------------------------------
                                 Maximum  Time of Max   Maximum    Max/    Max/
                                  |Flow|   Occurrence   |Veloc|    Full    Full
  Link                 Type          GPM  days hr:min    ft/sec    Flow   Depth
  -----------------------------------------------------------------------------
  CDT-310              CONDUIT   2401.62     0  00:00      3.83   31.93    1.00
  CDT-310-1            CONDUIT   2401.65     0  00:00      3.83   16.96    1.00
  CDT-31A1D            CONDUIT    976.27     0  21:14     11.08  142.29    1.00
  CDT-31A2D            CONDUIT    219.23     0  12:33      5.60   78.19    1.00
  CDT-31A3D            CONDUIT    386.04     0  00:00      4.38   56.27    1.00
  CDT-31A4D            CONDUIT    319.08     0  00:00      8.15  113.80    1.00
  CDT-31A5D            CONDUIT    406.41     1  04:47     18.50  144.94    1.00
  CDT-31F1D            CONDUIT    504.45     0  18:20     13.82  192.49    1.00
  CDT-31F2             CONDUIT    438.95     0  00:38     11.21  156.55    1.00
  CDT-31F21D           CONDUIT    380.07     0  18:41      9.70  171.13    1.00
  CDT-31F22            CONDUIT    753.33     0  00:00      8.55  138.62    1.00
  CDT-331AD            CONDUIT   1579.44     0  00:21     17.92  230.21    1.00
  CDT-35               CONDUIT   2401.57     0  00:00     15.33  107.96    1.00
  EAC_SGP30100003      CONDUIT    551.87     0  00:00      2.65    0.92    1.00
  EAC_SGP30100006      CONDUIT    412.14     0  00:00      2.63    1.12    1.00
  EAC_SGP30100013      CONDUIT    774.85     0  00:02      2.20    0.91    1.00
  EAC_SGP30100014      CONDUIT    775.12     0  00:02      2.20    0.73    1.00
  EAC_SGP30100015      CONDUIT    785.04     0  00:00      2.23    0.91    1.00
  EAC_SGP30100016      CONDUIT    785.49     0  00:01      2.34    0.91    1.00
  EAC_SGP30100019      CONDUIT    557.69     0  00:01      2.42    1.03    1.00
  EAC_SPG30100001      CONDUIT   1454.69     0  00:00      4.41    1.90    1.00
  EAC_SPG30100002      CONDUIT    732.16     0  00:00      3.09    0.83    1.00
  EAC_SPG30100004      CONDUIT    416.96     0  00:00      2.68    1.09    1.00
  EAC_SPG30100005      CONDUIT    414.74     0  00:00      2.65    1.04    1.00
  EAC_SPG30100011      CONDUIT    772.49     0  00:02      2.21    0.89    1.00
  EAC_SPG30100012      CONDUIT    774.49     0  00:02      2.20    0.99    1.00
  SGP30116140          CONDUIT   1005.53     0  00:00      5.58    0.77    0.90
  SGP30116150          CONDUIT    761.75     0  00:00      3.83    1.02    1.00
  SGP30116170          CONDUIT    689.43     0  00:00      2.97    0.93    1.00
  SGP30118160          CONDUIT    272.71     0  00:00      3.48    1.25    1.00
  SGP30118300          CONDUIT    544.80     0  00:00      3.48    1.36    1.00
  SGP30118350          CONDUIT    543.20     0  00:00      3.47    1.34    1.00
  SGP30118360          CONDUIT    541.33     0  00:00      3.46    1.34    1.00
  SGP30118370          CONDUIT    319.59     0  00:00      2.04    0.72    1.00
  SGP30118380          CONDUIT    319.39     0  00:00      2.06    0.72    1.00
  SGP30118390          CONDUIT    220.12     0  00:02      2.66    0.49    1.00
  SGP30118400          CONDUIT    219.90     0  00:02      2.81    0.49    1.00
  SGP30190400          CONDUIT    418.05     0  00:00      3.01    0.68    1.00
  SGP30190600          CONDUIT    453.93     0  00:00      3.05    1.02    1.00
  SGP30190700          CONDUIT    493.24     0  00:00      3.33    1.07    1.00
  SGP30190800          CONDUIT    526.57     0  00:00      3.67    1.15    1.00
  SGP301E0007          CONDUIT    409.75     0  00:00      2.62    0.92    1.00
  SGP301E0020          CONDUIT    542.38     0  00:01      2.48    0.80    1.00
  SGP37001700          CONDUIT    549.00     0  00:00      3.50    1.00    1.00
  SGP37001800          CONDUIT    551.35     0  00:00      3.58    2.29    1.00
  SGP37001900          CONDUIT    521.48     0  00:00      3.41    0.77    1.00
  SGP37002000          CONDUIT    521.58     0  00:00      3.56   15.52    0.88
  SPI30100200          CONDUIT    586.50     0  00:00      7.10    0.86    1.00
  SPI30100300          CONDUIT    120.72     0  00:00      1.64   48.35    1.00
  SPI3010031A          CONDUIT   1544.76     1  05:05      9.86  102.17    1.00
  SPI30100400          CONDUIT    170.64     0  16:45      2.28    0.13    1.00
  SPI30100600          CONDUIT    797.20     0  00:00      9.05   70.88    1.00
  SPI30100700          CONDUIT    170.67     0  16:45      1.94   92.76    1.00
  SPI30100800          CONDUIT    397.95     0  18:04      4.52   28.13    1.00
  SPI30101000          CONDUIT    271.12     0  13:21      3.08  202.22    1.00
  SPI30101300          CONDUIT    554.69     0  00:00      3.54   38.71    1.00
  SPI30101500          CONDUIT    555.87     0  00:00      3.55  161.13    1.00
  SPI30101600          CONDUIT    555.69     0  00:00      3.55  182.43    1.00
  SPI30101700          CONDUIT    555.88     0  00:00      3.55  142.15    1.00
  SPI30101800          CONDUIT    559.18     0  00:00      3.57   19.35    1.00
  SPI30101900          CONDUIT    577.53     0  14:46      3.69   15.32    1.00
  SPI30102000          CONDUIT    756.07     0  00:00      4.83   45.42    1.00
  SPI30102600          CONDUIT    913.05     0  15:22      5.83  178.42    1.00
  SPI30102700          CONDUIT    547.14     0  00:21      3.49   19.04    1.00
  SPI30102800          CONDUIT    912.22     0  15:22      5.82   47.47    1.00
  SPI30102900          CONDUIT   1304.21     0  17:48      8.32   37.84    1.00
  SPI30103100          CONDUIT    205.35     0  00:00      5.47    5.97    1.00
  SPI301031A1          CONDUIT    992.50     0  21:14     11.26   82.06    1.00
  SPI301031A2          CONDUIT    205.33     0  00:00      5.24   54.23    1.00
  SPI301031A3          CONDUIT    391.72     0  21:13      4.44   51.63    1.00
  SPI301031A4          CONDUIT    319.22     0  00:00      3.62   33.02    1.00
  SPI301031A5          CONDUIT    272.72     0  00:00      8.71    7.30    1.00
  SPI301031F2          CONDUIT    464.74     0  10:56      6.03   35.55    1.00
  SPI30104500          CONDUIT    293.91     0  12:11      3.50   52.16    1.00
  SPI30104600          CONDUIT    294.33     0  01:01      3.51   89.95    1.00
  SPI30104700          CONDUIT    280.13     0  20:30      3.18   21.31    1.00
  SPI30109800          CONDUIT   1601.65     0  21:32      2.56   12.38    1.00
  SPI30122000          CONDUIT    319.37     0  00:00      4.33    3.97    1.00
  SPI30123000          CONDUIT    401.52     0  21:13      4.56  110.41    1.00
  SPI30123100          CONDUIT    410.93     0  21:13      2.62   50.62    1.00
  SPI30123200          CONDUIT    387.31     0  00:00      2.47   71.53    1.00
  SPI30131F21          CONDUIT    383.32     1  11:34      4.35   35.47    1.00
  SPI30131F22          CONDUIT    772.28     0  00:00      4.93   28.29    1.00
  SPI30191000          CONDUIT   1842.60     0  00:00     22.91    0.78    1.00
  SPI30191200          CONDUIT   1001.81     0  21:14      6.39   84.08    1.00
  SPI30191300          CONDUIT    851.22     0  00:49      5.43   23.33    1.00
  SPI30191600          CONDUIT   1008.12     0  21:14      6.43   55.27    1.00
  SPI30191800          CONDUIT    382.31     0  00:00      2.44   18.19    1.00
  SPI30192000          CONDUIT    395.37     0  21:13      7.74    1.23    1.00
  SPI30192100          CONDUIT    866.90     0  00:49      5.53  242.00    1.00
  SPI30192200          CONDUIT    891.51     0  00:49      2.53   10.43    1.00
  SPI30192300          CONDUIT    953.37     0  01:41      2.70  103.28    1.00
  SPI30192500          CONDUIT    910.57     0  15:22      5.81  198.30    1.00
  SPI30192600          CONDUIT    911.14     0  15:22      5.82   35.76    1.00
  SPI30192800          CONDUIT    156.83     0  13:57      1.00    6.88    1.00
  SPI30193100          CONDUIT      6.04     1  00:02      0.27    9.78    1.00
  SPI30193200          CONDUIT     72.83     0  21:14      1.86   15.55    1.00
  SPI30193300          CONDUIT    307.52     0  01:27      3.49   14.26    1.00
  SPI301E5001          CONDUIT   1535.57     0  21:23      2.45   55.07    1.00
  SPI301E5002          CONDUIT    402.27     0  00:00      4.56    0.88    1.00
  SPI301E5003          CONDUIT    943.71     0  00:12      2.68   35.90    1.00
  SPI301E5004          CONDUIT   1608.76     0  21:32      2.57   58.38    1.00
  SPI301E5005          CONDUIT   1609.26     0  21:32     10.27  138.09    1.00
  SPI301E5006          CONDUIT   1594.44     0  21:32      2.54   66.95    1.00
  SPI301E5007          CONDUIT   1593.30     0  21:32      2.54   57.96    1.00
  SPI301E5008          CONDUIT   1576.96     0  21:23      2.52   11.34    1.00
  SPI301E5009          CONDUIT   1572.69     0  21:23      2.51   78.73    1.00
  SPI301E5010          CONDUIT   1572.08     0  21:23      2.51   63.71    1.00
  SPI301E5011          CONDUIT   1571.28     0  21:23      2.51   84.72    1.00
  SPI301E5012          CONDUIT   1568.68     0  21:23      2.50   35.57    1.00
  SPI301E5013          CONDUIT   1557.88     0  21:23      2.49   17.51    1.00
  SPI301E5014          CONDUIT   1546.58     0  21:23      2.47   33.02    1.00
  SPI301E5015          CONDUIT   1542.47     0  21:23      2.46   50.57    1.00
  SPI301E5016          CONDUIT    968.86     0  01:41      2.75   17.31    1.00
  SPI301E5017          CONDUIT    903.70     0  15:22      5.77   76.98    1.00
  SPI301E5018          CONDUIT    909.47     0  15:22      5.80  220.17    1.00
  SPI301E5019          CONDUIT    911.54     0  15:22      5.82  186.67    1.00
  SPI301E5020          CONDUIT    198.73     0  20:30      2.32   57.06    1.00
  SPI301E5021          CONDUIT   1539.10     0  21:23      2.46   44.71    1.00
  SPI37006500          CONDUIT    445.48     0  19:44      7.83   91.30    1.00
  SPI37006600          CONDUIT    371.89     0  00:00      4.22  114.44    1.00
  SPI37006700          CONDUIT    371.97     0  00:00      4.22  114.46    1.00
  SPI37006800          CONDUIT    372.24     0  00:00      4.22   47.44    1.00
  SPI37006900          CONDUIT    382.25     0  00:00      4.34   72.54    1.00
  SPI37007000          CONDUIT    390.02     0  00:00      4.43   33.71    1.00
  SPI37007100          CONDUIT    353.55     0  00:00      4.31    0.90    1.00
  SPI37007200          CONDUIT    245.44     0  19:12      4.34   89.64    1.00
  SPI37007300          CONDUIT    943.72     0  00:12      6.02  180.45    1.00
  SPI37007400          CONDUIT    943.72     0  00:12      2.68   69.98    1.00
  SPI37007500          CONDUIT    377.83     0  00:00      4.29   51.08    1.00
  SPI37007600          CONDUIT    943.68     0  00:12      6.02   64.58    1.00
  PUMP-11              PUMP       943.67     0  00:12              0.86
  PUMP-31A             PUMP      1595.37     0  00:21              0.86
  PUMP-31A1            PUMP       976.97     0  21:14              0.89
  PUMP-31A2            PUMP       249.45     0  12:33              0.48
  PUMP-31A3            PUMP       391.57     0  21:13              0.75
  PUMP-31A4            PUMP       319.07     0  00:00              0.61
  PUMP-31A5            PUMP       406.42     1  04:47              0.77
  PUMP-31F1            PUMP       525.00     0  03:46              1.00
  PUMP-31F2            PUMP       439.16     0  16:53              0.84
  PUMP-31F21           PUMP       380.12     0  18:41              0.72
  PUMP-31F22           PUMP       750.00     0  00:00              1.00
  
  
  ***************************
  Flow Classification Summary
  ***************************
  
  -------------------------------------------------------------------------------------
                      Adjusted    ---------- Fraction of Time in Flow Class ---------- 
                       /Actual         Up    Down  Sub   Sup   Up    Down  Norm  Inlet 
  Conduit               Length    Dry  Dry   Dry   Crit  Crit  Crit  Crit  Ltd   Ctrl  
  -------------------------------------------------------------------------------------
  CDT-310                 1.00   0.00  0.00  0.00  1.00  0.00  0.00  0.00  0.00  0.00
  CDT-310-1               1.00   0.00  0.00  0.00  1.00  0.00  0.00  0.00  0.00  0.00
  CDT-31A1D               1.00   0.00  0.00  0.00  1.00  0.00  0.00  0.00  0.00  0.00
  CDT-31A2D               1.00   0.00  0.00  0.00  1.00  0.00  0.00  0.00  0.00  0.00
  CDT-31A3D               1.00   0.00  0.00  0.00  1.00  0.00  0.00  0.00  0.00  0.00
  CDT-31A4D               1.00   0.00  0.00  0.00  1.00  0.00  0.00  0.00  0.00  0.00
  CDT-31A5D               1.00   0.00  0.00  0.00  1.00  0.00  0.00  0.00  0.00  0.00
  CDT-31F1D               1.00   0.00  0.00  0.00  1.00  0.00  0.00  0.00  0.00  0.00
  CDT-31F2                1.00   0.00  0.00  0.00  1.00  0.00  0.00  0.00  0.00  0.00
  CDT-31F21D              1.00   0.00  0.00  0.00  1.00  0.00  0.00  0.00  0.00  0.00
  CDT-31F22               1.00   0.00  0.00  0.00  1.00  0.00  0.00  0.00  0.00  0.00
  CDT-331AD               1.00   0.00  0.00  0.00  1.00  0.00  0.00  0.00  0.00  0.00
  CDT-35                  1.00   0.00  0.00  0.00  1.00  0.00  0.00  0.00  0.00  0.00
  EAC_SGP30100003         1.00   0.00  0.00  0.00  1.00  0.00  0.00  0.00  0.00  0.00
  EAC_SGP30100006         1.00   0.00  0.00  0.00  1.00  0.00  0.00  0.00  0.01  0.00
  EAC_SGP30100013         1.00   0.00  0.00  0.00  1.00  0.00  0.00  0.00  0.99  0.00
  EAC_SGP30100014         1.00   0.00  0.00  0.00  1.00  0.00  0.00  0.00  0.99  0.00
  EAC_SGP30100015         1.00   0.00  0.00  0.00  1.00  0.00  0.00  0.00  0.00  0.00
  EAC_SGP30100016         1.00   0.00  0.00  0.00  1.00  0.00  0.00  0.00  0.92  0.00
  EAC_SGP30100019         1.00   0.00  0.00  0.00  1.00  0.00  0.00  0.00  0.13  0.00
  EAC_SPG30100001         1.00   0.00  0.00  0.00  0.01  0.00  0.00  0.99  0.00  0.00
  EAC_SPG30100002         1.00   0.00  0.00  0.00  1.00  0.00  0.00  0.00  1.00  0.00
  EAC_SPG30100004         1.00   0.00  0.00  0.00  1.00  0.00  0.00  0.00  0.99  0.00
  EAC_SPG30100005         1.00   0.00  0.00  0.00  1.00  0.00  0.00  0.00  0.89  0.00
  EAC_SPG30100011         1.00   0.00  0.00  0.00  1.00  0.00  0.00  0.00  0.99  0.00
  EAC_SPG30100012         1.00   0.00  0.00  0.00  1.00  0.00  0.00  0.00  0.02  0.00
  SGP30116140             1.00   0.00  0.00  0.00  0.00  0.00  0.00  1.00  0.00  0.00
  SGP30116150             1.00   0.00  0.00  0.00  0.44  0.56  0.00  0.00  0.00  0.00
  SGP30116170             1.00   0.00  0.00  0.00  1.00  0.00  0.00  0.00  0.78  0.00
  SGP30118160             1.00   0.00  0.00  0.00  0.95  0.05  0.00  0.00  0.00  0.00
  SGP30118300             1.00   0.00  0.00  0.00  0.63  0.37  0.00  0.00  0.00  0.00
  SGP30118350             1.00   0.00  0.00  0.00  0.90  0.10  0.00  0.00  0.76  0.00
  SGP30118360             1.00   0.00  0.00  0.00  0.84  0.16  0.00  0.00  0.77  0.00
  SGP30118370             1.00   0.00  0.18  0.00  0.82  0.00  0.00  0.00  0.99  0.00
  SGP30118380             1.00   0.00  0.00  0.00  0.99  0.01  0.00  0.00  0.99  0.00
  SGP30118390             1.00   0.00  0.00  0.00  0.86  0.14  0.00  0.00  0.85  0.00
  SGP30118400             1.00   0.00  0.00  0.00  0.88  0.12  0.00  0.00  0.88  0.00
  SGP30190400             1.00   0.00  0.00  0.00  0.99  0.01  0.00  0.00  0.98  0.00
  SGP30190600             1.00   0.00  0.00  0.00  0.99  0.01  0.00  0.00  0.38  0.00
  SGP30190700             1.00   0.00  0.26  0.00  0.73  0.01  0.00  0.00  0.99  0.00
  SGP30190800             1.00   0.00  0.00  0.00  0.00  0.00  0.00  1.00  0.00  0.00
  SGP301E0007             1.00   0.00  0.00  0.00  1.00  0.00  0.00  0.00  0.99  0.00
  SGP301E0020             1.00   0.00  0.00  0.00  0.98  0.02  0.00  0.00  0.95  0.00
  SGP37001700             1.00   0.00  0.00  0.00  1.00  0.00  0.00  0.00  1.00  0.00
  SGP37001800             1.00   0.00  0.00  0.00  1.00  0.00  0.00  0.00  0.00  0.00
  SGP37001900             1.00   0.00  0.00  0.00  1.00  0.00  0.00  0.00  1.00  0.00
  SGP37002000             1.00   0.00  0.00  0.00  0.00  0.00  0.00  1.00  0.00  0.00
  SPI30100200             1.00   0.00  0.00  0.00  0.00  1.00  0.00  0.00  1.00  0.00
  SPI30100300             1.00   0.00  0.00  0.00  1.00  0.00  0.00  0.00  0.00  0.00
  SPI3010031A             1.00   0.00  0.00  0.00  1.00  0.00  0.00  0.00  0.00  0.00
  SPI30100400             1.02   0.00  0.00  0.00  1.00  0.00  0.00  0.00  0.00  0.00
  SPI30100600             1.00   0.00  0.00  0.00  1.00  0.00  0.00  0.00  0.00  0.00
  SPI30100700             1.00   0.00  0.00  0.00  1.00  0.00  0.00  0.00  0.00  0.00
  SPI30100800             1.00   0.00  0.00  0.00  1.00  0.00  0.00  0.00  0.00  0.00
  SPI30101000             1.00   0.00  0.00  0.00  1.00  0.00  0.00  0.00  0.00  0.00
  SPI30101300             1.00   0.00  0.00  0.00  1.00  0.00  0.00  0.00  0.00  0.00
  SPI30101500             1.00   0.00  0.00  0.00  1.00  0.00  0.00  0.00  0.00  0.00
  SPI30101600             1.00   0.00  0.00  0.00  1.00  0.00  0.00  0.00  0.00  0.00
  SPI30101700             1.00   0.00  0.00  0.00  1.00  0.00  0.00  0.00  0.00  0.00
  SPI30101800             1.00   0.00  0.00  0.00  1.00  0.00  0.00  0.00  0.00  0.00
  SPI30101900             1.00   0.00  0.00  0.00  1.00  0.00  0.00  0.00  0.00  0.00
  SPI30102000             1.00   0.00  0.00  0.00  1.00  0.00  0.00  0.00  0.00  0.00
  SPI30102600             1.00   0.00  0.00  0.00  1.00  0.00  0.00  0.00  0.01  0.00
  SPI30102700             1.00   0.00  0.00  0.00  1.00  0.00  0.00  0.00  0.00  0.00
  SPI30102800             1.00   0.00  0.00  0.00  1.00  0.00  0.00  0.00  0.00  0.00
  SPI30102900             1.00   0.00  0.00  0.00  1.00  0.00  0.00  0.00  0.00  0.00
  SPI30103100             1.00   0.00  0.00  0.00  0.90  0.10  0.00  0.00  0.09  0.00
  SPI301031A1             1.00   0.00  0.00  0.00  1.00  0.00  0.00  0.00  0.00  0.00
  SPI301031A2             1.00   0.00  0.00  0.00  1.00  0.00  0.00  0.00  0.00  0.00
  SPI301031A3             1.00   0.00  0.00  0.00  1.00  0.00  0.00  0.00  0.00  0.00
  SPI301031A4             1.00   0.00  0.00  0.00  1.00  0.00  0.00  0.00  0.00  0.00
  SPI301031A5             1.00   0.00  0.00  0.00  1.00  0.00  0.00  0.00  0.57  0.00
  SPI301031F2             1.00   0.00  0.00  0.00  0.99  0.01  0.00  0.00  0.00  0.00
  SPI30104500             1.00   0.00  0.00  0.00  1.00  0.00  0.00  0.00  0.00  0.00
  SPI30104600             1.00   0.00  0.00  0.00  1.00  0.00  0.00  0.00  0.00  0.00
  SPI30104700             1.00   0.00  0.00  0.00  1.00  0.00  0.00  0.00  0.00  0.00
  SPI30109800             1.00   0.00  0.00  0.00  1.00  0.00  0.00  0.00  0.00  0.00
  SPI30122000             1.00   0.00  0.00  0.00  1.00  0.00  0.00  0.00  0.60  0.00
  SPI30123000             1.00   0.00  0.00  0.00  1.00  0.00  0.00  0.00  0.00  0.00
  SPI30123100             1.00   0.00  0.00  0.00  1.00  0.00  0.00  0.00  0.00  0.00
  SPI30123200             1.00   0.00  0.00  0.00  1.00  0.00  0.00  0.00  0.00  0.00
  SPI30131F21             1.00   0.00  0.00  0.00  1.00  0.00  0.00  0.00  0.00  0.00
  SPI30131F22             1.00   0.00  0.00  0.00  1.00  0.00  0.00  0.00  0.00  0.00
  SPI30191000             1.23   0.00  0.87  0.00  0.03  0.10  0.00  0.00  1.00  0.00
  SPI30191200             1.00   0.00  0.00  0.00  1.00  0.00  0.00  0.00  0.00  0.00
  SPI30191300             1.00   0.00  0.00  0.00  1.00  0.00  0.00  0.00  0.00  0.00
  SPI30191600             1.00   0.00  0.00  0.00  1.00  0.00  0.00  0.00  0.00  0.00
  SPI30191800             1.00   0.00  0.00  0.00  1.00  0.00  0.00  0.00  0.00  0.00
  SPI30192000             1.00   0.00  0.87  0.00  0.03  0.10  0.00  0.00  0.90  0.00
  SPI30192100             1.00   0.00  0.00  0.00  1.00  0.00  0.00  0.00  0.00  0.00
  SPI30192200             1.00   0.00  0.00  0.00  1.00  0.00  0.00  0.00  0.00  0.00
  SPI30192300             1.00   0.00  0.00  0.00  1.00  0.00  0.00  0.00  0.00  0.00
  SPI30192500             1.00   0.00  0.00  0.00  1.00  0.00  0.00  0.00  0.00  0.00
  SPI30192600             1.00   0.00  0.00  0.00  1.00  0.00  0.00  0.00  0.00  0.00
  SPI30192800             1.00   0.00  0.00  0.00  1.00  0.00  0.00  0.00  0.00  0.00
  SPI30193100             1.00   0.00  0.00  0.00  1.00  0.00  0.00  0.00  0.00  0.00
  SPI30193200             1.00   0.00  0.00  0.00  1.00  0.00  0.00  0.00  0.00  0.00
  SPI30193300             1.00   0.00  0.00  0.00  1.00  0.00  0.00  0.00  0.00  0.00
  SPI301E5001             1.00   0.00  0.00  0.00  1.00  0.00  0.00  0.00  0.00  0.00
  SPI301E5002             1.00   0.00  0.00  0.00  0.00  1.00  0.00  0.00  1.00  0.00
  SPI301E5003             1.00   0.00  0.00  0.00  1.00  0.00  0.00  0.00  0.00  0.00
  SPI301E5004             1.00   0.00  0.00  0.00  1.00  0.00  0.00  0.00  0.00  0.00
  SPI301E5005             1.00   0.00  0.00  0.00  1.00  0.00  0.00  0.00  0.00  0.00
  SPI301E5006             1.00   0.00  0.00  0.00  1.00  0.00  0.00  0.00  0.00  0.00
  SPI301E5007             1.00   0.00  0.00  0.00  1.00  0.00  0.00  0.00  0.00  0.00
  SPI301E5008             1.00   0.00  0.00  0.00  1.00  0.00  0.00  0.00  0.00  0.00
  SPI301E5009             1.00   0.00  0.00  0.00  1.00  0.00  0.00  0.00  0.00  0.00
  SPI301E5010             1.00   0.00  0.00  0.00  1.00  0.00  0.00  0.00  0.00  0.00
  SPI301E5011             1.00   0.00  0.00  0.00  1.00  0.00  0.00  0.00  0.00  0.00
  SPI301E5012             1.00   0.00  0.00  0.00  1.00  0.00  0.00  0.00  0.00  0.00
  SPI301E5013             1.00   0.00  0.00  0.00  1.00  0.00  0.00  0.00  0.00  0.00
  SPI301E5014             1.00   0.00  0.00  0.00  1.00  0.00  0.00  0.00  0.00  0.00
  SPI301E5015             1.00   0.00  0.00  0.00  1.00  0.00  0.00  0.00  0.00  0.00
  SPI301E5016             1.00   0.00  0.00  0.00  1.00  0.00  0.00  0.00  0.00  0.00
  SPI301E5017             1.00   0.00  0.00  0.00  1.00  0.00  0.00  0.00  0.00  0.00
  SPI301E5018             1.00   0.00  0.00  0.00  1.00  0.00  0.00  0.00  0.00  0.00
  SPI301E5019             1.00   0.00  0.00  0.00  1.00  0.00  0.00  0.00  0.00  0.00
  SPI301E5020             1.00   0.00  0.00  0.00  1.00  0.00  0.00  0.00  0.00  0.00
  SPI301E5021             1.00   0.00  0.00  0.00  1.00  0.00  0.00  0.00  0.00  0.00
  SPI37006500             1.00   0.00  0.00  0.00  1.00  0.00  0.00  0.00  0.00  0.00
  SPI37006600             1.00   0.00  0.00  0.00  1.00  0.00  0.00  0.00  0.00  0.00
  SPI37006700             1.00   0.00  0.00  0.00  1.00  0.00  0.00  0.00  0.00  0.00
  SPI37006800             1.00   0.00  0.00  0.00  1.00  0.00  0.00  0.00  0.00  0.00
  SPI37006900             1.00   0.00  0.00  0.00  1.00  0.00  0.00  0.00  0.00  0.00
  SPI37007000             1.00   0.00  0.00  0.00  1.00  0.00  0.00  0.00  0.00  0.00
  SPI37007100             1.00   0.00  0.00  0.00  0.00  1.00  0.00  0.00  0.97  0.00
  SPI37007200             1.00   0.00  0.00  0.00  0.99  0.01  0.00  0.00  0.00  0.00
  SPI37007300             1.00   0.00  0.00  0.00  1.00  0.00  0.00  0.00  0.00  0.00
  SPI37007400             1.00   0.00  0.00  0.00  1.00  0.00  0.00  0.00  0.00  0.00
  SPI37007500             1.00   0.00  0.00  0.00  1.00  0.00  0.00  0.00  0.00  0.00
  SPI37007600             1.00   0.00  0.00  0.00  1.00  0.00  0.00  0.00  0.00  0.00
  
  
  *************************
  Conduit Surcharge Summary
  *************************
  
  ----------------------------------------------------------------------------
                                                           Hours        Hours 
                         --------- Hours Full --------   Above Full   Capacity
  Conduit                Both Ends  Upstream  Dnstream   Normal Flow   Limited
  ----------------------------------------------------------------------------
  CDT-310                    36.00     36.00     36.00     20.87        18.61
  CDT-310-1                  36.00     36.00     36.00     16.18        17.82
  CDT-31A1D                  35.99     35.99     36.00      3.00        11.01
  CDT-31A2D                  33.39     33.54     33.68      4.38        16.31
  CDT-31A3D                  35.99     35.99     36.00      3.70        17.23
  CDT-31A4D                  35.99     35.99     36.00      0.08        13.29
  CDT-31A5D                   0.07      0.10      0.07      0.29         0.07
  CDT-31F1D                   0.73      0.77      0.76      0.20         0.28
  CDT-31F2                   32.88     32.89     32.95      3.39        18.83
  CDT-31F21D                 35.97     35.97     36.00      0.51        13.08
  CDT-31F22                  36.00     36.00     36.00      0.82         7.08
  CDT-331AD                  36.00     36.00     36.00      3.74        10.80
  CDT-35                     36.00     36.00     36.00     28.63        19.74
  EAC_SGP30100003             0.01      0.01      0.01      0.01         0.01
  EAC_SGP30100006             0.02      0.03      0.02      0.02         0.02
  EAC_SGP30100013             0.12      0.12      0.19      0.01         0.01
  EAC_SGP30100014             0.08      0.08      0.12      0.01         0.01
  EAC_SGP30100015             0.01      0.01      0.08      0.01         0.01
  EAC_SGP30100016             0.01      0.01      0.01      0.01         0.01
  EAC_SGP30100019             0.02      0.02      0.02      0.02         0.01
  EAC_SPG30100001             0.21      0.26      0.21      0.23         0.21
  EAC_SPG30100002             0.01      0.01      0.29      0.01         0.01
  EAC_SPG30100004             0.02      0.02      0.02      0.04         0.02
  EAC_SPG30100005             0.02      0.02      0.02      0.01         0.02
  EAC_SPG30100011             0.22      0.22      0.26      0.01         0.01
  EAC_SPG30100012             0.18      0.19      0.22      0.01         0.04
  SGP30116140                 0.01      0.01      0.08      0.01         0.01
  SGP30116150                 0.01      0.01      0.01      0.01         0.01
  SGP30116170                 0.01      0.01      0.01      0.01         0.01
  SGP30118160                 0.01      0.02      0.01      0.02         0.01
  SGP30118300                 0.02      0.05      0.02      0.13         0.02
  SGP30118350                 0.05      0.07      0.05      0.12         0.05
  SGP30118360                 0.07      0.09      0.07      0.11         0.07
  SGP30118370                 0.05      0.05      0.09      0.01         0.01
  SGP30118380                 0.01      0.01      0.05      0.01         0.01
  SGP30118390                 0.05      0.05      0.09      0.01         0.01
  SGP30118400                 0.03      0.03      0.05      0.01         0.01
  SGP30190400                 0.01      0.01      0.01      0.01         0.01
  SGP30190600                 0.01      0.01      0.01      0.01         0.01
  SGP30190700                 0.01      0.01      0.03      0.02         0.01
  SGP30190800                 0.03      0.03      0.06      0.02         0.01
  SGP301E0007                 0.02      0.02      0.03      0.01         0.01
  SGP301E0020                 0.01      0.01      0.02      0.01         0.01
  SGP37001700                 0.02      0.02      0.12      0.01         0.01
  SGP37001800                 0.01      0.12      0.01      0.18         0.01
  SGP37001900                 0.01      0.01      0.14      0.01         0.01
  SGP37002000                 0.01      0.14      0.01      6.10         0.01
  SPI30100200                 0.01      0.01      0.02      0.01         0.01
  SPI30100300                 0.01      0.02      0.01     26.28         0.01
  SPI3010031A                31.29     32.11     31.89      4.82        10.12
  SPI30100400                 0.02      0.02     36.00      0.01         0.01
  SPI30100600                36.00     36.00     36.00      1.69        10.20
  SPI30100700                36.00     36.00     36.00     17.62        17.90
  SPI30100800                36.00     36.00     36.00      5.74        13.36
  SPI30101000                 1.99      3.12      2.37     33.52         1.88
  SPI30101300                36.00     36.00     36.00      5.22        10.52
  SPI30101500                36.00     36.00     36.00     12.79        17.05
  SPI30101600                36.00     36.00     36.00     13.61        17.35
  SPI30101700                35.99     36.00     36.00     11.63        16.87
  SPI30101800                35.99     35.99     36.00      2.68         6.35
  SPI30101900                35.99     35.99     35.99      1.56         4.11
  SPI30102000                35.99     35.99     35.99      1.81         8.75
  SPI30102600                31.66     32.62     33.87     26.48        17.28
  SPI30102700                31.67     32.09     32.18      3.82         8.66
  SPI30102800                31.57     32.18     32.62     15.21        15.78
  SPI30102900                31.66     31.89     32.18      5.96         9.79
  SPI30103100                 0.04      0.05     33.65      4.08         0.01
  SPI301031A1                36.00     36.00     36.00      5.55        12.85
  SPI301031A2                33.46     33.68     33.65      5.23        16.40
  SPI301031A3                36.00     36.00     36.00      3.71        17.24
  SPI301031A4                35.38     35.41     35.41      0.08        16.72
  SPI301031A5                 0.02      0.07      0.03      0.10         0.02
  SPI301031F2                 2.97      3.85      3.12      3.40         2.77
  SPI30104500                 2.06      2.37      2.16     34.97         1.87
  SPI30104600                 1.68      2.16      1.70     35.95         1.61
  SPI30104700                 1.26      1.70      1.28     22.75         1.20
  SPI30109800                36.00     36.00     36.00     15.88        16.91
  SPI30122000                 0.01      0.03     35.41      0.08         0.01
  SPI30123000                36.00     36.00     36.00      3.72        18.92
  SPI30123100                 3.93      4.11      4.02      3.70         3.82
  SPI30123200                 3.73      4.02      4.13      3.71         3.70
  SPI30131F21                36.00     36.00     36.00      0.59        10.94
  SPI30131F22                35.99     35.99     35.99      1.19         5.70
  SPI30191000                 0.01      0.01     36.00      0.01         0.01
  SPI30191200                33.50     33.61     35.01     11.36        17.41
  SPI30191300                34.99     35.01     35.83      9.99        15.65
  SPI30191600                33.34     33.39     33.61      6.72        14.74
  SPI30191800                 4.10      4.13      4.13      3.71         3.74
  SPI30192000                 0.01      0.01     36.00      3.70         0.01
  SPI30192100                35.83     35.83     36.00     30.32        19.03
  SPI30192200                32.86     33.52     34.27      8.31        14.18
  SPI30192300                34.25     34.27     35.98     28.22        18.48
  SPI30192500                34.91     35.24     35.51     29.09        18.03
  SPI30192600                33.20     33.87     34.74     15.23        15.53
  SPI30192800                36.00     36.00     36.00      1.66         9.51
  SPI30193100                35.97     35.97     36.00      1.27        11.97
  SPI30193200                36.00     36.00     36.00      2.90        10.16
  SPI30193300                35.99     35.99     36.00      4.22        10.60
  SPI301E5001                32.62     32.80     34.82     23.89        18.32
  SPI301E5002                 0.01      0.01      0.02      0.01         0.01
  SPI301E5003                35.96     35.97     35.99      2.72        11.77
  SPI301E5004                36.00     36.00     36.00     27.26        18.54
  SPI301E5005                36.00     36.00     36.00     31.31        19.26
  SPI301E5006                36.00     36.00     36.00     27.93        18.88
  SPI301E5007                36.00     36.00     36.00     27.11        18.87
  SPI301E5008                36.00     36.00     36.00     14.82        16.73
  SPI301E5009                36.00     36.00     36.00     28.50        18.72
  SPI301E5010                35.99     36.00     36.00     27.32        18.68
  SPI301E5011                35.99     36.00     36.00     28.83        18.71
  SPI301E5012                35.97     35.97     36.00     23.22        18.72
  SPI301E5013                35.82     35.83     35.97     17.59        17.96
  SPI301E5014                35.67     35.77     35.83     22.31        18.63
  SPI301E5015                35.41     35.54     35.77     24.87        18.74
  SPI301E5016                35.98     35.98     36.00     15.43        17.04
  SPI301E5017                35.92     35.92     36.00     24.99        17.42
  SPI301E5018                35.45     35.51     35.92     30.57        17.60
  SPI301E5019                34.19     34.74     35.24     28.25        18.03
  SPI301E5020                 1.11      1.21      1.28      2.04         0.43
  SPI301E5021                34.61     34.82     35.54     23.13        18.50
  SPI37006500                 0.02      0.09      0.02      0.58         0.02
  SPI37006600                 0.02      0.02      0.03      5.29         0.02
  SPI37006700                 0.02      0.03      0.02      7.26         0.02
  SPI37006800                 0.02      0.02      0.02      0.89         0.02
  SPI37006900                 0.02      0.02      0.02      1.56         0.02
  SPI37007000                 0.01      0.02      0.01      0.73         0.01
  SPI37007100                 0.01      0.01      0.03      0.01         0.01
  SPI37007200                 0.01      1.28      0.01     36.00         0.01
  SPI37007300                35.96     35.96     36.00      3.03        15.21
  SPI37007400                35.90     35.92     35.97      2.82        14.41
  SPI37007500                 0.02      0.02      0.02      1.00         0.02
  SPI37007600                35.79     35.79     35.96      2.62        12.64
  
  
  ***************
  Pumping Summary
  ***************
  
  ---------------------------------------------------------------------------------------------------------
                                                  Min       Avg       Max     Total     Power    % Time Off
                        Percent   Number of      Flow      Flow      Flow    Volume     Usage    Pump Curve
  Pump                 Utilized   Start-Ups       GPM       GPM       GPM  10^6 gal     Kw-hr    Low   High
  ---------------------------------------------------------------------------------------------------------
  PUMP-11                  6.20          76      0.00    879.66    943.67     0.118     15.83    0.0    0.0
  PUMP-31A                 6.97         177      0.00   1022.06   1595.37     0.154     50.59    0.0    0.0
  PUMP-31A1                7.59          88      0.00    764.45    976.97     0.125     28.19    0.0    0.0
  PUMP-31A2               10.42          98      0.00    162.82    249.45     0.037      5.01    0.0    0.0
  PUMP-31A3               10.27           2      0.00    374.32    391.57     0.083     10.74    0.0    0.0
  PUMP-31A4                0.18           4      0.00    223.59    319.07     0.001      0.11    0.0    0.0
  PUMP-31A5                0.27           5      0.00    275.37    406.42     0.002      0.17    0.0    0.0
  PUMP-31F1                0.42          12      0.00    428.12    525.00     0.004      0.40    0.0    4.5
  PUMP-31F2                9.12          74      0.00    263.91    439.16     0.052      5.70    0.0    0.0
  PUMP-31F21               1.30          47      0.00    372.70    380.12     0.010      0.93    0.0    0.0
  PUMP-31F22               1.60          73      0.00    706.90    750.00     0.024      4.41    0.0   39.1
  

  Analysis begun on:  Fri Mar  6 15:00:48 2026
  Analysis ended on:  Fri Mar  6 15:01:04 2026
  Total elapsed time: 00:00:16