
  EPA STORM WATER MANAGEMENT MODEL - VERSION 5.2 (Build 5.2.4)
  ------------------------------------------------------------

                                                         Extran with surcharge in 2 foot circular conduits 
                                                         SWMM CRADA Example 1 
  WARNING 04: minimum elevation drop used for Conduit pipe1
  WARNING 04: minimum elevation drop used for Conduit pipe2
  WARNING 04: minimum elevation drop used for Conduit pipe3
  WARNING 04: minimum elevation drop used for Conduit pipe5
  WARNING 04: minimum elevation drop used for Conduit pipe6
  WARNING 04: minimum elevation drop used for Conduit pipe8
  WARNING 04: minimum elevation drop used for Conduit pipe9
  WARNING 04: minimum elevation drop used for Conduit outlet
  
  ****************
  Analysis Options
  ****************
  Flow Units ............... CFS
  Process Models:
    Rainfall/Runoff ........ NO
    RDII ................... NO
    Snowmelt ............... NO
    Groundwater ............ NO
    Flow Routing ........... YES
    Ponding Allowed ........ NO
    Water Quality .......... NO
  Flow Routing Method ...... DYNWAVE
  Surcharge Method ......... EXTRAN
  Starting Date ............ 02/22/2002 00:00:00
  Ending Date .............. 02/22/2002 05:00:00
  Antecedent Dry Days ...... 0.0
  Report Time Step ......... 00:00:10
  Routing Time Step ........ 10.00 sec
  Variable Time Step ....... YES
  Maximum Trials ........... 8
  Number of Threads ........ 1
  Head Tolerance ........... 0.005000 ft
  
  
  **************************        Volume        Volume
  Flow Routing Continuity        acre-feet      10^6 gal
  **************************     ---------     ---------
  Dry Weather Inflow .......         0.000         0.000
  Wet Weather Inflow .......         0.000         0.000
  Groundwater Inflow .......         0.000         0.000
  RDII Inflow ..............         0.000         0.000
  External Inflow ..........        49.583        16.157
  External Outflow .........        34.528        11.252
  Flooding Loss ............        14.935         4.867
  Evaporation Loss .........         0.000         0.000
  Exfiltration Loss ........         0.000         0.000
  Initial Stored Volume ....         0.000         0.000
  Final Stored Volume ......         0.089         0.029
  Continuity Error (%) .....         0.063
  
  
  ***************************
  Time-Step Critical Elements
  ***************************
  Link outlet (78.54%)
  Link pipe7 (2.77%)
  Link pipe4 (2.12%)
  Link pipe9 (1.59%)
  Link pipe8 (1.16%)
  
  
  ********************************
  Highest Flow Instability Indexes
  ********************************
  Link pipe3 (2)
  Link pipe4 (2)
  Link pipe5 (1)
  Link pipe6 (1)
  Link pipe2 (1)
  
  
  *********************************
  Most Frequent Nonconverging Nodes
  *********************************
  Node Outlet (5.41%)
  Node Inflow (3.88%)
  Node mid2 (3.82%)
  Node mid1 (3.77%)
  Node mid4 (3.71%)
  
  
  *************************
  Routing Time Step Summary
  *************************
  Minimum Time Step           :     0.50 sec
  Average Time Step           :     3.92 sec
  Maximum Time Step           :    10.00 sec
  % of Time in Steady State   :     0.00
  Average Iterations per Step :     2.43
  % of Steps Not Converging   :     5.41
  Time Step Frequencies       :
     10.000 -  5.493 sec      :    14.68 %
      5.493 -  3.017 sec      :     3.79 %
      3.017 -  1.657 sec      :    80.52 %
      1.657 -  0.910 sec      :     0.59 %
      0.910 -  0.500 sec      :     0.41 %
  
  
  ******************
  Node Depth Summary
  ******************
  
  ---------------------------------------------------------------------------------
                                 Average  Maximum  Maximum  Time of Max    Reported
                                   Depth    Depth      HGL   Occurrence   Max Depth
  Node                 Type         Feet     Feet     Feet  days hr:min        Feet
  ---------------------------------------------------------------------------------
  Inflow               JUNCTION     8.26    10.00    90.00     0  00:09       10.00
  mid1                 JUNCTION     7.73     9.39    89.39     0  00:09        9.39
  mid2                 JUNCTION     7.21     8.76    88.76     0  00:09        8.76
  mid3                 JUNCTION     6.67     8.12    88.12     0  00:10        8.11
  mid4                 JUNCTION    75.41    77.47    87.47     0  00:10       77.46
  mid5                 JUNCTION    74.88    76.82    86.82     0  00:10       76.81
  mid6                 JUNCTION    74.36    76.17    86.17     0  00:10       76.16
  mid7                 JUNCTION     4.58     5.52    85.52     0  00:10        5.52
  mid8                 JUNCTION     4.05     4.87    84.87     0  00:10        4.86
  mid9                 JUNCTION     3.53     4.21    84.21     0  00:11        4.21
  Outlet               OUTFALL      2.90     3.47    83.47     0  00:13        3.47
  
  
  *******************
  Node Inflow Summary
  *******************
  
  -------------------------------------------------------------------------------------------------
                                  Maximum  Maximum                  Lateral       Total        Flow
                                  Lateral    Total  Time of Max      Inflow      Inflow     Balance
                                   Inflow   Inflow   Occurrence      Volume      Volume       Error
  Node                 Type           CFS      CFS  days hr:min    10^6 gal    10^6 gal     Percent
  -------------------------------------------------------------------------------------------------
  Inflow               JUNCTION    200.00   200.00     0  00:15        16.2        16.2      -0.000
  mid1                 JUNCTION      0.00   136.15     0  00:12           0        11.3      -0.007
  mid2                 JUNCTION      0.00   136.15     0  00:12           0        11.3      -0.000
  mid3                 JUNCTION      0.00   136.15     0  00:13           0        11.3       0.005
  mid4                 JUNCTION      0.00   136.15     0  00:13           0        11.3       0.098
  mid5                 JUNCTION      0.00   136.15     0  00:15           0        11.3       0.124
  mid6                 JUNCTION      0.00   136.15     0  00:16           0        11.3       0.121
  mid7                 JUNCTION      0.00   136.15     0  00:14           0        11.3       0.001
  mid8                 JUNCTION      0.00   136.15     0  00:13           0        11.3       0.002
  mid9                 JUNCTION      0.00   136.15     0  00:13           0        11.3       0.003
  Outlet               OUTFALL       0.00   136.15     0  00:13           0        11.3       0.000
  
  
  **********************
  Node Surcharge Summary
  **********************
  
  Surcharging occurs when water rises above the top of the highest conduit.
  ---------------------------------------------------------------------
                                               Max. Height   Min. Depth
                                   Hours       Above Crown    Below Rim
  Node                 Type      Surcharged           Feet         Feet
  ---------------------------------------------------------------------
  Inflow               JUNCTION        3.09          6.000        0.000
  mid1                 JUNCTION        3.08          5.388        0.612
  mid2                 JUNCTION        3.07          4.757        1.243
  mid3                 JUNCTION        3.07          4.116        1.884
  mid4                 JUNCTION        4.93         73.468        2.532
  mid5                 JUNCTION        4.93         72.822        3.178
  mid6                 JUNCTION        4.93         72.171        3.829
  mid7                 JUNCTION        3.02          1.519        4.481
  mid8                 JUNCTION        2.99          0.867        5.133
  mid9                 JUNCTION        2.94          0.212        5.788
  
  
  *********************
  Node Flooding Summary
  *********************
  
  Flooding refers to all water that overflows a node, whether it ponds or not.
  --------------------------------------------------------------------------
                                                             Total   Maximum
                                 Maximum   Time of Max       Flood    Ponded
                        Hours       Rate    Occurrence      Volume     Depth
  Node                 Flooded       CFS   days hr:min    10^6 gal      Feet
  --------------------------------------------------------------------------
  Inflow                  2.92     63.85      0  00:15       4.866     0.000
  
  
  ***********************
  Outfall Loading Summary
  ***********************
  
  -----------------------------------------------------------
                         Flow       Avg       Max       Total
                         Freq      Flow      Flow      Volume
  Outfall Node           Pcnt       CFS       CFS    10^6 gal
  -----------------------------------------------------------
  Outlet                98.65    113.45    136.15      11.251
  -----------------------------------------------------------
  System                98.65    113.45    136.15      11.251
  
  
  ********************
  Link Flow Summary
  ********************
  
  -----------------------------------------------------------------------------
                                 Maximum  Time of Max   Maximum    Max/    Max/
                                  |Flow|   Occurrence   |Veloc|    Full    Full
  Link                 Type          CFS  days hr:min    ft/sec    Flow   Depth
  -----------------------------------------------------------------------------
  pipe1                CONDUIT    136.15     0  00:12     10.83   25.36    1.00
  pipe2                CONDUIT    136.15     0  00:12     10.83   25.36    1.00
  pipe3                CONDUIT    136.15     0  00:13     15.43   25.36    1.00
  pipe4                CONDUIT    136.15     0  00:13     19.31    0.08    1.00
  pipe5                CONDUIT    136.15     0  00:15     10.83   25.36    1.00
  pipe6                CONDUIT    136.15     0  00:16     10.83   25.36    1.00
  pipe7                CONDUIT    136.15     0  00:14     10.83    0.08    1.00
  pipe8                CONDUIT    136.15     0  00:13     10.83   25.36    1.00
  pipe9                CONDUIT    136.15     0  00:13     10.83   25.36    1.00
  outlet               CONDUIT    136.15     0  00:13     11.15   25.36    0.93
  
  
  ***************************
  Flow Classification Summary
  ***************************
  
  -------------------------------------------------------------------------------------
                      Adjusted    ---------- Fraction of Time in Flow Class ---------- 
                       /Actual         Up    Down  Sub   Sup   Up    Down  Norm  Inlet 
  Conduit               Length    Dry  Dry   Dry   Crit  Crit  Crit  Crit  Ltd   Ctrl  
  -------------------------------------------------------------------------------------
  pipe1                   1.00   0.00  0.00  0.00  1.00  0.00  0.00  0.00  0.00  0.00
  pipe2                   1.00   0.00  0.00  0.00  1.00  0.00  0.00  0.00  0.01  0.00
  pipe3                   1.00   0.00  0.00  0.00  0.99  0.01  0.00  0.00  0.01  0.00
  pipe4                   1.00   0.00  0.00  0.00  0.99  0.01  0.00  0.00  0.01  0.00
  pipe5                   1.00   0.00  0.00  0.00  1.00  0.00  0.00  0.00  0.00  0.00
  pipe6                   1.00   0.00  0.00  0.00  0.99  0.00  0.00  0.00  0.00  0.00
  pipe7                   1.00   0.01  0.01  0.00  0.98  0.00  0.00  0.00  0.00  0.00
  pipe8                   1.00   0.02  0.00  0.00  0.98  0.00  0.00  0.00  0.00  0.00
  pipe9                   1.00   0.02  0.00  0.00  0.98  0.00  0.00  0.00  0.00  0.00
  outlet                  1.00   0.02  0.00  0.00  0.98  0.00  0.00  0.00  0.00  0.00
  
  
  *************************
  Conduit Surcharge Summary
  *************************
  
  ----------------------------------------------------------------------------
                                                           Hours        Hours 
                         --------- Hours Full --------   Above Full   Capacity
  Conduit                Both Ends  Upstream  Dnstream   Normal Flow   Limited
  ----------------------------------------------------------------------------
  pipe1                       3.08      3.09      3.08      3.24         3.08
  pipe2                       3.07      3.08      3.07      3.23         3.07
  pipe3                       3.07      3.07      3.07      3.23         3.06
  pipe4                       3.07      3.07      4.93      0.01         0.01
  pipe5                       4.93      4.93      4.93      3.23         3.17
  pipe6                       4.93      4.93      4.93      3.22         3.17
  pipe7                       3.02      3.02      4.92      0.01         0.01
  pipe8                       2.99      3.02      2.99      3.19         2.99
  pipe9                       2.94      2.99      2.94      3.20         2.94
  outlet                      0.01      2.94      0.01      3.20         0.01
  

  Analysis begun on:  Fri Mar  6 15:01:18 2026
  Analysis ended on:  Fri Mar  6 15:01:18 2026
  Total elapsed time: < 1 sec