
  EPA STORM WATER MANAGEMENT MODEL - VERSION 5.2 (Build 5.2.4)
  ------------------------------------------------------------

  WARNING 04: minimum elevation drop used for Conduit CDT-17
  
  *************
  Element Count
  *************
  Number of rain gages ...... 0
  Number of subcatchments ... 0
  Number of nodes ........... 8
  Number of links ........... 7
  Number of pollutants ...... 0
  Number of land uses ....... 0
  
  
  ************
  Node Summary
  ************
                                           Invert      Max.    Ponded    External
  Name                 Type                 Elev.     Depth      Area    Inflow  
  -------------------------------------------------------------------------------
  JCT-10               JUNCTION            101.00     10.00       0.0    Yes
  JCT-12               JUNCTION            100.00     10.00       0.0
  JCT-14               JUNCTION             90.00     20.00       0.0
  JCT-16               JUNCTION             89.00     20.00       0.0
  JCT-18               JUNCTION             89.00     20.00       0.0
  JCT-20               JUNCTION             88.00     20.00       0.0
  JCT-22               JUNCTION             98.00     10.00       0.0
  OFALL-10             OUTFALL              97.00      1.00       0.0
  
  
  ************
  Link Summary
  ************
  Name             From Node        To Node          Type            Length    %Slope Roughness
  ---------------------------------------------------------------------------------------------
  CDT-11           JCT-10           JCT-12           CONDUIT          100.0    1.0001    0.0100
  CDT-13           JCT-12           JCT-14           CONDUIT          100.0   10.0504    0.0100
  CDT-15           JCT-14           JCT-16           CONDUIT          100.0    1.0001    0.0100
  CDT-17           JCT-16           JCT-18           CONDUIT          100.0    0.0010    0.0100
  CDT-19           JCT-18           JCT-20           CONDUIT          100.0    1.0001    0.0100
  CDT-21           JCT-20           JCT-22           CONDUIT          100.0  -10.0504    0.0100
  CDT-23           JCT-22           OFALL-10         CONDUIT          100.0    1.0001    0.0100
  
  
  *********************
  Cross Section Summary
  *********************
                                        Full     Full     Hyd.     Max.   No. of     Full
  Conduit          Shape               Depth     Area     Rad.    Width  Barrels     Flow
  ---------------------------------------------------------------------------------------
  CDT-11           CIRCULAR             1.00     0.79     0.25     1.00        1     4.63
  CDT-13           CIRCULAR             1.00     0.79     0.25     1.00        1    14.68
  CDT-15           CIRCULAR             1.00     0.79     0.25     1.00        1     4.63
  CDT-17           CIRCULAR             1.00     0.79     0.25     1.00        1     0.15
  CDT-19           CIRCULAR             1.00     0.79     0.25     1.00        1     4.63
  CDT-21           CIRCULAR             1.00     0.79     0.25     1.00        1    14.68
  CDT-23           CIRCULAR             1.00     0.79     0.25     1.00        1     4.63
  
  
  ****************
  Analysis Options
  ****************
  Flow Units ............... CFS
  Process Models:
    Rainfall/Runoff ........ NO
    RDII ................... NO
    Snowmelt ............... NO
    Groundwater ............ NO
    Flow Routing ........... YES
    Ponding Allowed ........ NO
    Water Quality .......... NO
  Flow Routing Method ...... DYNWAVE
  Surcharge Method ......... EXTRAN
  Starting Date ............ 01/01/2002 00:00:00
  Ending Date .............. 01/01/2002 23:00:00
  Antecedent Dry Days ...... 5.0
  Report Time Step ......... 00:01:00
  Routing Time Step ........ 10.00 sec
  Variable Time Step ....... YES
  Maximum Trials ........... 8
  Number of Threads ........ 1
  Head Tolerance ........... 0.001000 ft
  
  
  **************************        Volume        Volume
  Flow Routing Continuity        acre-feet      10^6 gal
  **************************     ---------     ---------
  Dry Weather Inflow .......         3.702         1.206
  Wet Weather Inflow .......         0.000         0.000
  Groundwater Inflow .......         0.000         0.000
  RDII Inflow ..............         0.000         0.000
  External Inflow ..........         0.000         0.000
  External Outflow .........         3.691         1.203
  Flooding Loss ............         0.000         0.000
  Evaporation Loss .........         0.000         0.000
  Exfiltration Loss ........         0.000         0.000
  Initial Stored Volume ....         0.000         0.000
  Final Stored Volume ......         0.008         0.002
  Continuity Error (%) .....         0.107
  
  
  ***************************
  Time-Step Critical Elements
  ***************************
  Link CDT-21 (21.16%)
  Link CDT-11 (18.34%)
  Link CDT-23 (15.45%)
  Link CDT-13 (11.22%)
  
  
  ********************************
  Highest Flow Instability Indexes
  ********************************
  All links are stable.
  
  
  *********************************
  Most Frequent Nonconverging Nodes
  *********************************
  Node OFALL-10 (1.74%)
  Node JCT-16 (1.56%)
  Node JCT-14 (1.56%)
  Node JCT-18 (1.53%)
  Node JCT-20 (1.32%)
  
  
  *************************
  Routing Time Step Summary
  *************************
  Minimum Time Step           :     1.46 sec
  Average Time Step           :     7.77 sec
  Maximum Time Step           :    10.00 sec
  % of Time in Steady State   :     0.00
  Average Iterations per Step :     2.13
  % of Steps Not Converging   :     1.74
  Time Step Frequencies       :
     10.000 -  5.493 sec      :    84.51 %
      5.493 -  3.017 sec      :    15.48 %
      3.017 -  1.657 sec      :     0.00 %
      1.657 -  0.910 sec      :     0.01 %
      0.910 -  0.500 sec      :     0.00 %
  
  
  ******************
  Node Depth Summary
  ******************
  
  ---------------------------------------------------------------------------------
                                 Average  Maximum  Maximum  Time of Max    Reported
                                   Depth    Depth      HGL   Occurrence   Max Depth
  Node                 Type         Feet     Feet     Feet  days hr:min        Feet
  ---------------------------------------------------------------------------------
  JCT-10               JUNCTION     2.06     8.74   109.74     0  06:01        8.73
  JCT-12               JUNCTION     1.95     8.06   108.06     0  06:01        8.05
  JCT-14               JUNCTION    10.61    16.37   106.37     0  06:01       16.36
  JCT-16               JUNCTION    11.13    15.69   104.69     0  06:01       15.67
  JCT-18               JUNCTION    10.65    14.00   103.00     0  06:01       13.98
  JCT-20               JUNCTION    11.16    13.31   101.31     0  06:01       13.30
  JCT-22               JUNCTION     0.59     1.65    99.65     0  06:00        1.61
  OFALL-10             OUTFALL      0.50     0.95    97.95     0  06:01        0.95
  
  
  *******************
  Node Inflow Summary
  *******************
  
  -------------------------------------------------------------------------------------------------
                                  Maximum  Maximum                  Lateral       Total        Flow
                                  Lateral    Total  Time of Max      Inflow      Inflow     Balance
                                   Inflow   Inflow   Occurrence      Volume      Volume       Error
  Node                 Type           CFS      CFS  days hr:min    10^6 gal    10^6 gal     Percent
  -------------------------------------------------------------------------------------------------
  JCT-10               JUNCTION      6.00     6.00     0  06:00        1.21        1.21       0.001
  JCT-12               JUNCTION      0.00     6.00     0  06:01           0        1.21       0.005
  JCT-14               JUNCTION      0.00     6.00     0  06:01           0        1.21       0.071
  JCT-16               JUNCTION      0.00     6.01     0  06:01           0        1.21       0.079
  JCT-18               JUNCTION      0.00     6.01     0  06:01           0         1.2       0.078
  JCT-20               JUNCTION      0.00     6.01     0  06:01           0         1.2       0.076
  JCT-22               JUNCTION      0.00     6.01     0  06:01           0         1.2       0.003
  OFALL-10             OUTFALL       0.00     6.01     0  06:01           0         1.2       0.000
  
  
  **********************
  Node Surcharge Summary
  **********************
  
  Surcharging occurs when water rises above the top of the highest conduit.
  ---------------------------------------------------------------------
                                               Max. Height   Min. Depth
                                   Hours       Above Crown    Below Rim
  Node                 Type      Surcharged           Feet         Feet
  ---------------------------------------------------------------------
  JCT-10               JUNCTION        6.00          7.737        1.263
  JCT-12               JUNCTION        6.02          7.057        1.943
  JCT-14               JUNCTION       22.90         15.373        3.627
  JCT-16               JUNCTION       22.92         14.687        4.313
  JCT-18               JUNCTION       22.92         12.999        6.001
  JCT-20               JUNCTION       22.94         12.309        6.691
  JCT-22               JUNCTION        2.00          0.655        8.345
  
  
  *********************
  Node Flooding Summary
  *********************
  
  No nodes were flooded.
  
  
  ***********************
  Outfall Loading Summary
  ***********************
  
  -----------------------------------------------------------
                         Flow       Avg       Max       Total
                         Freq      Flow      Flow      Volume
  Outfall Node           Pcnt       CFS       CFS    10^6 gal
  -----------------------------------------------------------
  OFALL-10              99.46      2.50      6.01       1.203
  -----------------------------------------------------------
  System                99.46      2.50      6.01       1.203
  
  
  ********************
  Link Flow Summary
  ********************
  
  -----------------------------------------------------------------------------
                                 Maximum  Time of Max   Maximum    Max/    Max/
                                  |Flow|   Occurrence   |Veloc|    Full    Full
  Link                 Type          CFS  days hr:min    ft/sec    Flow   Depth
  -----------------------------------------------------------------------------
  CDT-11               CONDUIT      6.00     0  06:01      7.64    1.30    1.00
  CDT-13               CONDUIT      6.00     0  06:01     11.12    0.41    1.00
  CDT-15               CONDUIT      6.01     0  06:01      7.65    1.30    1.00
  CDT-17               CONDUIT      6.01     0  06:01      7.65   41.03    1.00
  CDT-19               CONDUIT      6.01     0  06:01      7.65    1.30    1.00
  CDT-21               CONDUIT      6.01     0  06:01      7.66    0.41    1.00
  CDT-23               CONDUIT      6.01     0  06:01      7.70    1.30    0.98
  
  
  ***************************
  Flow Classification Summary
  ***************************
  
  -------------------------------------------------------------------------------------
                      Adjusted    ---------- Fraction of Time in Flow Class ---------- 
                       /Actual         Up    Down  Sub   Sup   Up    Down  Norm  Inlet 
  Conduit               Length    Dry  Dry   Dry   Crit  Crit  Crit  Crit  Ltd   Ctrl  
  -------------------------------------------------------------------------------------
  CDT-11                  1.00   0.00  0.00  0.00  0.34  0.66  0.00  0.00  0.09  0.00
  CDT-13                  1.00   0.00  0.00  0.00  1.00  0.00  0.00  0.00  0.65  0.00
  CDT-15                  1.00   0.00  0.00  0.00  1.00  0.00  0.00  0.00  0.00  0.00
  CDT-17                  1.00   0.00  0.00  0.00  1.00  0.00  0.00  0.00  0.00  0.00
  CDT-19                  1.00   0.00  0.00  0.00  1.00  0.00  0.00  0.00  0.00  0.00
  CDT-21                  1.00   0.00  0.01  0.00  0.99  0.00  0.00  0.00  0.00  0.00
  CDT-23                  1.00   0.01  0.00  0.00  0.09  0.91  0.00  0.00  0.26  0.00
  
  
  *************************
  Conduit Surcharge Summary
  *************************
  
  ----------------------------------------------------------------------------
                                                           Hours        Hours 
                         --------- Hours Full --------   Above Full   Capacity
  Conduit                Both Ends  Upstream  Dnstream   Normal Flow   Limited
  ----------------------------------------------------------------------------
  CDT-11                      6.00      6.00      6.02      2.00         2.00
  CDT-13                      6.02      6.02     22.90      0.01         0.01
  CDT-15                     22.90     22.90     22.92      2.00         2.00
  CDT-17                     22.92     22.92     22.92     22.97        22.86
  CDT-19                     22.92     22.92     22.94      2.00         2.00
  CDT-21                      2.00      2.00     22.86      0.01         0.01
  CDT-23                      0.01      2.00      0.01      2.00         0.01
  

  Analysis begun on:  Fri Mar  6 15:01:18 2026
  Analysis ended on:  Fri Mar  6 15:01:18 2026
  Total elapsed time: < 1 sec