
  EPA STORM WATER MANAGEMENT MODEL - VERSION 5.2 (Build 5.2.4)
  ------------------------------------------------------------

  
  ****************
  Analysis Options
  ****************
  Flow Units ............... GPM
  Process Models:
    Rainfall/Runoff ........ NO
    RDII ................... NO
    Snowmelt ............... NO
    Groundwater ............ NO
    Flow Routing ........... YES
    Ponding Allowed ........ NO
    Water Quality .......... NO
  Flow Routing Method ...... DYNWAVE
  Surcharge Method ......... EXTRAN
  Starting Date ............ 01/01/2002 00:00:00
  Ending Date .............. 01/01/2002 23:00:00
  Antecedent Dry Days ...... 5.0
  Report Time Step ......... 00:00:30
  Routing Time Step ........ 5.00 sec
  Variable Time Step ....... YES
  Maximum Trials ........... 8
  Number of Threads ........ 1
  Head Tolerance ........... 0.001000 ft
  
  
  **************************        Volume        Volume
  Flow Routing Continuity        acre-feet      10^6 gal
  **************************     ---------     ---------
  Dry Weather Inflow .......         0.037         0.012
  Wet Weather Inflow .......         0.000         0.000
  Groundwater Inflow .......         0.000         0.000
  RDII Inflow ..............         0.000         0.000
  External Inflow ..........         0.676         0.220
  External Outflow .........         0.679         0.221
  Flooding Loss ............         0.000         0.000
  Evaporation Loss .........         0.000         0.000
  Exfiltration Loss ........         0.000         0.000
  Initial Stored Volume ....         0.000         0.000
  Final Stored Volume ......         0.031         0.010
  Continuity Error (%) .....         0.263
  
  
  *************************
  Highest Continuity Errors
  *************************
  Node 070-002 (3.92%)
  
  
  ***************************
  Time-Step Critical Elements
  ***************************
  None
  
  
  ********************************
  Highest Flow Instability Indexes
  ********************************
  Link 163 (2)
  Link 164 (2)
  
  
  *********************************
  Most Frequent Nonconverging Nodes
  *********************************
  Node 070-033 (12.14%)
  Node 083-160 (12.14%)
  Node OFALL-10 (12.14%)
  
  
  *************************
  Routing Time Step Summary
  *************************
  Minimum Time Step           :     5.00 sec
  Average Time Step           :     5.00 sec
  Maximum Time Step           :     5.00 sec
  % of Time in Steady State   :     0.00
  Average Iterations per Step :     3.20
  % of Steps Not Converging   :    12.14
  Time Step Frequencies       :
      5.000 -  5.000 sec      :     0.00 %
      5.000 -  5.000 sec      :     0.00 %
      5.000 -  5.000 sec      :     0.00 %
      5.000 -  5.000 sec      :     0.00 %
      5.000 -  5.000 sec      :   100.00 %
  
  
  ******************
  Node Depth Summary
  ******************
  
  ---------------------------------------------------------------------------------
                                 Average  Maximum  Maximum  Time of Max    Reported
                                   Depth    Depth      HGL   Occurrence   Max Depth
  Node                 Type         Feet     Feet     Feet  days hr:min        Feet
  ---------------------------------------------------------------------------------
  069-054              JUNCTION     0.22     0.50   942.30     0  09:02        0.50
  069-055              JUNCTION     0.20     0.41   941.39     0  00:04        0.41
  070-001              JUNCTION     0.01     0.01   937.12     0  13:00        0.01
  070-002              JUNCTION     0.06     0.11   935.92     0  12:55        0.10
  070-003              JUNCTION     0.24     0.37   935.92     0  12:53        0.36
  070-004              JUNCTION     0.30     0.44   934.58     0  12:54        0.44
  070-005              JUNCTION     0.16     0.23   933.15     0  12:55        0.23
  070-006              JUNCTION     0.33     0.49   932.07     0  12:56        0.49
  070-007              JUNCTION     0.25     0.34   931.25     0  12:57        0.34
  070-008              JUNCTION     0.30     0.36   928.07     0  13:01        0.36
  070-009              JUNCTION     0.20     0.24   925.94     0  13:02        0.24
  070-010              JUNCTION     0.23     0.28   924.39     0  13:03        0.28
  070-011              JUNCTION     0.21     0.24   922.10     0  13:04        0.24
  070-012              JUNCTION     0.08     0.11   922.10     0  13:04        0.11
  070-013              JUNCTION     0.28     0.32   916.76     0  13:06        0.32
  070-014              JUNCTION     0.21     0.23   915.75     0  12:52        0.23
  070-015              JUNCTION     0.21     0.23   912.22     0  12:53        0.23
  070-016              JUNCTION     0.21     0.24   908.07     0  12:54        0.24
  070-017              JUNCTION     0.21     0.24   904.74     0  12:55        0.24
  070-031              JUNCTION     0.25     0.43   937.03     0  00:22        0.43
  070-032              JUNCTION     0.22     0.39   939.07     0  12:51        0.39
  070-033              JUNCTION     0.47     2.27   941.30     0  12:19        1.28
  070-034              JUNCTION     0.27     0.36   930.07     0  00:29        0.36
  071-104              JUNCTION     0.18     0.19   892.89     0  12:59        0.19
  071-105              JUNCTION     0.14     0.16   888.54     0  13:00        0.16
  071-106              JUNCTION     0.26     0.28   873.56     0  13:02        0.28
  071-107              JUNCTION     0.17     0.19   868.21     0  12:48        0.19
  071-108              JUNCTION     0.19     0.21   865.47     0  12:48        0.21
  071-109              JUNCTION     0.14     0.15   863.54     0  12:49        0.15
  071-115              JUNCTION     0.00     0.00   864.65     0  13:00        0.00
  071-117              JUNCTION     0.24     0.26   855.76     0  12:49        0.26
  071-118              JUNCTION     0.00     0.00   855.21     0  13:00        0.00
  071-119              JUNCTION     0.17     0.18   852.90     0  12:53        0.18
  071-123              JUNCTION     0.00     0.00   853.31     0  13:00        0.00
  071-124              JUNCTION     0.21     0.23   848.51     0  12:55        0.23
  071-125              JUNCTION     0.26     0.28   847.19     0  12:56        0.28
  071-126              JUNCTION     0.15     0.16   841.55     0  12:56        0.16
  071-127              JUNCTION     0.15     0.16   838.63     0  12:57        0.16
  071-128              JUNCTION     0.19     0.20   834.36     0  12:58        0.20
  071-129              JUNCTION     0.00     0.00   843.63     0  13:00        0.00
  071-157              JUNCTION     0.21     0.23   900.68     0  12:56        0.23
  071-158              JUNCTION     0.26     0.29   899.90     0  12:57        0.29
  071-159              JUNCTION     0.20     0.22   897.62     0  12:58        0.22
  071-160              JUNCTION     0.00     0.00   894.64     0  13:00        0.00
  071-161              JUNCTION     0.00     0.00   893.18     0  13:00        0.00
  071-163              JUNCTION     0.00     0.00   855.64     0  13:00        0.00
  071-164              JUNCTION     0.22     0.24   854.69     0  12:50        0.24
  071-165              JUNCTION     0.01     0.01   854.07     0  13:00        0.01
  071-166              JUNCTION     0.25     0.27   854.21     0  12:51        0.27
  071-167              JUNCTION     0.02     0.02   852.94     0  00:44        0.02
  071-168              JUNCTION     0.30     0.32   853.40     0  12:52        0.32
  071-171              JUNCTION     0.17     0.19   850.97     0  12:53        0.19
  071-172              JUNCTION     0.25     0.27   848.86     0  12:53        0.27
  071-181              JUNCTION     0.00     0.00   838.37     0  13:00        0.00
  071-217              JUNCTION     0.16     0.17   872.33     0  12:47        0.17
  071-220              JUNCTION     0.00     0.00   860.22     0  13:00        0.00
  071-221              JUNCTION     0.09     0.10   845.27     0  12:56        0.10
  071-227              JUNCTION     0.00     0.00   856.78     0  13:00        0.00
  071-228              JUNCTION     0.00     0.00   857.71     0  13:00        0.00
  071-235              JUNCTION     0.00     0.00   866.85     0  12:58        0.00
  071-237              JUNCTION     0.00     0.00   857.81     0  13:00        0.00
  083-004              JUNCTION     0.19     0.20   832.68     0  12:58        0.20
  083-005              JUNCTION     0.00     0.00   832.03     0  19:01        0.00
  083-006              JUNCTION     0.17     0.18   828.39     0  12:59        0.18
  083-007              JUNCTION     0.25     0.26   821.59     0  13:16        0.26
  083-008              JUNCTION     0.22     0.23   820.61     0  12:47        0.23
  083-009              JUNCTION     0.01     0.01   848.67     0  13:00        0.01
  083-010              JUNCTION     0.01     0.01   836.94     0  13:00        0.01
  083-011              JUNCTION     0.02     0.03   826.44     0  13:00        0.03
  083-012              JUNCTION     0.09     0.10   817.17     0  12:49        0.10
  083-013              JUNCTION     0.28     0.30   818.01     0  12:49        0.30
  083-014              JUNCTION     0.02     0.02   819.29     0  13:00        0.02
  083-015              JUNCTION     0.01     0.01   819.42     0  13:00        0.01
  083-016              JUNCTION     0.00     0.00   837.02     0  12:52        0.00
  083-129              JUNCTION     0.00     0.00   846.34     0  01:23        0.00
  083-130              JUNCTION     0.01     0.01   840.95     0  03:51        0.01
  083-131              JUNCTION     0.01     0.01   839.45     0  12:37        0.01
  083-132              JUNCTION     0.01     0.01   839.12     0  12:38        0.01
  083-133              JUNCTION     0.01     0.01   831.12     0  12:18        0.01
  083-134              JUNCTION     0.01     0.01   825.60     0  12:26        0.01
  083-157              JUNCTION     0.00     0.00   851.54     0  12:39        0.00
  083-158              JUNCTION     0.02     0.02   828.64     0  13:00        0.02
  083-159              JUNCTION     0.02     0.02   823.54     0  13:00        0.02
  083-160              OUTFALL      0.09     0.10   814.78     0  12:49        0.10
  OFALL-10             OUTFALL      0.00     0.00   814.68     0  00:00        0.00
  
  
  *******************
  Node Inflow Summary
  *******************
  
  -------------------------------------------------------------------------------------------------
                                  Maximum  Maximum                  Lateral       Total        Flow
                                  Lateral    Total  Time of Max      Inflow      Inflow     Balance
                                   Inflow   Inflow   Occurrence      Volume      Volume       Error
  Node                 Type           GPM      GPM  days hr:min    10^6 gal    10^6 gal     Percent
  -------------------------------------------------------------------------------------------------
  069-054              JUNCTION    400.01   400.01     0  12:01        0.22        0.22      -0.565
  069-055              JUNCTION      0.10   412.11     0  00:03    0.000134       0.222       0.528
  070-001              JUNCTION      0.31     0.31     0  12:00    0.000316    0.000316       0.392
  070-002              JUNCTION      0.10    22.19     0  00:23    0.000134     0.00463       4.078
  070-003              JUNCTION      0.10   364.73     0  12:52    0.000134       0.225       0.009
  070-004              JUNCTION      0.10   325.83     0  12:53    0.000134        0.22       0.142
  070-005              JUNCTION      0.10   291.97     0  12:54    0.000134        0.22       0.059
  070-006              JUNCTION      0.10   290.27     0  12:55    0.000134        0.22       0.038
  070-007              JUNCTION      0.10   276.84     0  12:56    0.000134        0.22       0.091
  070-008              JUNCTION      0.10   250.21     0  12:59    0.000134        0.22       0.396
  070-009              JUNCTION      0.10   216.70     0  13:01    0.000134       0.219       0.167
  070-010              JUNCTION      0.10   211.98     0  13:02    0.000134       0.219       0.058
  070-011              JUNCTION      0.10   211.72     0  13:03    0.000134        0.22       0.139
  070-012              JUNCTION      0.10     2.99     0  00:22    0.000134    0.000592       1.188
  070-013              JUNCTION      0.10   204.04     0  13:05    0.000134       0.219       0.178
  070-014              JUNCTION      0.34   196.68     0  12:51    0.000347       0.219       0.059
  070-015              JUNCTION      0.10   195.70     0  12:52    0.000134       0.219       0.103
  070-016              JUNCTION      0.10   193.80     0  12:53    0.000134       0.219       0.111
  070-017              JUNCTION      0.10   191.60     0  12:54    0.000134       0.219       0.121
  070-031              JUNCTION      0.10   389.12     0  12:51    0.000134        0.22       0.171
  070-032              JUNCTION      0.10   405.26     0  12:19    0.000134        0.22      -0.046
  070-033              JUNCTION      0.10   420.48     0  00:04    0.000134       0.221       0.268
  070-034              JUNCTION      0.10   273.75     0  12:57    0.000134        0.22       0.225
  071-104              JUNCTION      0.02   184.21     0  12:59    1.78e-05       0.218       0.103
  071-105              JUNCTION      0.01   183.38     0  12:59    3.66e-06       0.218       0.084
  071-106              JUNCTION      0.00   182.53     0  13:00           0       0.218       0.173
  071-107              JUNCTION      0.00   179.13     0  12:47           0       0.217       0.054
  071-108              JUNCTION      0.10   178.96     0  12:48    0.000134       0.217       0.048
  071-109              JUNCTION      0.10   178.97     0  12:48    0.000134       0.217       0.047
  071-115              JUNCTION      0.01     0.01     0  12:00    1.23e-05    1.23e-05       0.710
  071-117              JUNCTION      0.01   178.77     0  12:49    8.52e-06       0.217       0.103
  071-118              JUNCTION      0.10     0.14     0  13:00    0.000134    0.000173       0.207
  071-119              JUNCTION      0.10   176.37     0  12:52    0.000134       0.218       0.050
  071-123              JUNCTION      0.00     0.00     0  12:00    2.74e-07    2.74e-07       0.014 gal
  071-124              JUNCTION      0.01   176.21     0  12:54    6.64e-06       0.218       0.088
  071-125              JUNCTION      0.10   175.58     0  12:55    0.000134       0.218       0.115
  071-126              JUNCTION      0.10   174.70     0  12:56    0.000134       0.218       0.037
  071-127              JUNCTION      0.10   174.79     0  12:56    0.000134       0.218       0.043
  071-128              JUNCTION      0.10   174.79     0  12:57    0.000134       0.218       0.095
  071-129              JUNCTION      0.01     0.01     0  12:00    1.44e-05    1.44e-05       0.464
  071-157              JUNCTION      0.10   188.91     0  12:55    0.000134       0.219       0.093
  071-158              JUNCTION      0.10   187.66     0  12:56    0.000134       0.218       0.105
  071-159              JUNCTION      0.10   186.10     0  12:57    0.000134       0.218       0.139
  071-160              JUNCTION      0.01     0.01     0  12:00    1.29e-05    1.29e-05       0.471
  071-161              JUNCTION      0.10     0.11     0  13:00    0.000134    0.000147       0.248
  071-163              JUNCTION      0.04     0.04     0  12:00    3.93e-05    3.93e-05       0.683
  071-164              JUNCTION      0.10   178.20     0  12:50    0.000134       0.217       0.080
  071-165              JUNCTION      0.10     0.11     0  12:53    0.000134    0.000147       0.516
  071-166              JUNCTION      0.10   177.60     0  12:50    0.000134       0.217       0.075
  071-167              JUNCTION      0.10     0.33     0  13:00    0.000134    0.000435       0.980
  071-168              JUNCTION      0.10   177.03     0  12:51    0.000134       0.217       0.115
  071-171              JUNCTION      0.10   176.25     0  12:53    0.000134       0.218       0.054
  071-172              JUNCTION      0.10   176.11     0  12:53    0.000134       0.218       0.050
  071-181              JUNCTION      0.01     0.01     0  12:00     1.2e-05     1.2e-05       0.505
  071-217              JUNCTION      0.00   179.48     0  12:47    2.74e-07       0.217       0.064
  071-220              JUNCTION      0.02     0.02     0  12:00    1.84e-05    1.84e-05       0.273
  071-221              JUNCTION      0.10   174.64     0  12:56    0.000134       0.217       0.028
  071-227              JUNCTION      0.01     0.01     0  12:00    1.32e-05    1.32e-05       0.459
  071-228              JUNCTION      0.10     0.12     0  13:00    0.000134    0.000154       0.273
  071-235              JUNCTION      0.01     0.01     0  12:00    1.35e-05    1.35e-05       0.211
  071-237              JUNCTION      0.02     0.02     0  12:00    2.06e-05    2.06e-05       0.999
  083-004              JUNCTION      0.10   174.28     0  12:58    0.000134       0.218       0.070
  083-005              JUNCTION      0.10     0.10     0  00:00    0.000134    0.000134       0.281
  083-006              JUNCTION      0.10   174.38     0  12:58    0.000134       0.218       0.125
  083-007              JUNCTION      0.10   173.61     0  12:59    0.000134       0.218       0.149
  083-008              JUNCTION      0.10   176.17     0  13:01    0.000134       0.221       0.170
  083-009              JUNCTION      0.10     0.22     0  12:14    0.000134    0.000258       0.286
  083-010              JUNCTION      0.10     0.32     0  13:00    0.000134    0.000391       0.238
  083-011              JUNCTION      0.10     2.67     0  13:00    0.000134     0.00279       0.152
  083-012              JUNCTION      0.01   174.30     0  12:49    9.06e-06       0.221       0.021
  083-013              JUNCTION      0.10   175.91     0  12:47    0.000134       0.222       0.210
  083-014              JUNCTION      0.78     0.91     0  12:59    0.000782    0.000957       0.297
  083-015              JUNCTION      0.10     0.14     0  12:40    0.000134    0.000176       0.410
  083-016              JUNCTION      0.04     0.04     0  12:00    4.21e-05    4.21e-05       0.112
  083-129              JUNCTION      0.10     0.10     0  00:00    0.000134    0.000134       0.214
  083-130              JUNCTION      0.10     0.19     0  00:55    0.000134    0.000268       0.256
  083-131              JUNCTION      0.07     0.26     0  12:00     6.7e-05    0.000334       0.283
  083-132              JUNCTION      0.10     0.36     0  12:57    0.000134    0.000467       0.131
  083-133              JUNCTION      0.10     0.45     0  12:38    0.000134      0.0006       0.181
  083-134              JUNCTION      0.10     0.55     0  12:20    0.000134    0.000733       0.120
  083-157              JUNCTION      0.12     0.12     0  12:00    0.000124    0.000124       0.058
  083-158              JUNCTION      2.25     2.57     0  13:00     0.00227     0.00266       0.106
  083-159              JUNCTION      0.10     2.76     0  13:00    0.000134     0.00292       0.161
  083-160              OUTFALL       0.10   174.39     0  12:49    0.000134       0.221       0.000
  OFALL-10             OUTFALL       0.00     0.00     0  00:00           0           0       0.000 gal
  
  
  **********************
  Node Surcharge Summary
  **********************
  
  Surcharging occurs when water rises above the top of the highest conduit.
  ---------------------------------------------------------------------
                                               Max. Height   Min. Depth
                                   Hours       Above Crown    Below Rim
  Node                 Type      Surcharged           Feet         Feet
  ---------------------------------------------------------------------
  070-033              JUNCTION        4.06          1.606        0.727
  
  
  *********************
  Node Flooding Summary
  *********************
  
  No nodes were flooded.
  
  
  ***********************
  Outfall Loading Summary
  ***********************
  
  -----------------------------------------------------------
                         Flow       Avg       Max       Total
                         Freq      Flow      Flow      Volume
  Outfall Node           Pcnt       GPM       GPM    10^6 gal
  -----------------------------------------------------------
  083-160               99.23    161.66    174.39       0.221
  OFALL-10               0.00      0.00      0.00       0.000
  -----------------------------------------------------------
  System                49.61    161.66    174.39       0.221
  
  
  ********************
  Link Flow Summary
  ********************
  
  -----------------------------------------------------------------------------
                                 Maximum  Time of Max   Maximum    Max/    Max/
                                  |Flow|   Occurrence   |Veloc|    Full    Full
  Link                 Type          GPM  days hr:min    ft/sec    Flow   Depth
  -----------------------------------------------------------------------------
  1000                 CONDUIT    174.54     0  12:56      4.24    0.17    0.22
  1001                 CONDUIT    174.60     0  12:56      6.40    0.02    0.13
  1002                 CONDUIT    174.69     0  12:56      4.71    0.06    0.16
  1023                 CONDUIT      0.01     0  13:00      0.02    0.00    0.15
  1024                 CONDUIT    174.19     0  12:58      4.38    0.20    0.30
  1025                 CONDUIT    174.18     0  12:58      4.43    0.12    0.23
  1026                 CONDUIT    172.76     0  13:01      3.01    0.21    0.30
  1027                 CONDUIT      2.76     0  13:00      1.19    0.00    0.15
  1028                 CONDUIT      2.67     0  13:00      1.23    0.00    0.03
  1029                 CONDUIT      2.57     0  13:00      1.22    0.00    0.03
  1082                 CONDUIT      2.89     0  00:22      0.21    0.01    0.26
  1099                 CONDUIT    211.63     0  13:03      3.81    0.34    0.39
  1100                 CONDUIT    211.89     0  13:02      3.81    0.28    0.39
  1110                 CONDUIT      0.12     0  13:00      0.21    0.00    0.02
  1112                 CONDUIT    177.51     0  12:50      2.79    0.18    0.31
  1141                 CONDUIT      0.32     0  13:00      0.39    0.00    0.02
  1154                 CONDUIT      0.10     0  00:55      0.00    0.00    0.01
  1162                 CONDUIT      0.26     0  12:57      0.00    0.00    0.01
  1163                 CONDUIT      0.36     0  12:38      0.00    0.00    0.01
  1164                 CONDUIT      0.55     0  12:26      0.58    0.00    0.18
  1217                 CONDUIT      0.01     0  13:00      0.01    0.00    0.14
  1218                 CONDUIT      0.02     0  13:00      0.00    0.00    0.01
  160                  CONDUIT    364.63     0  12:52      3.87    0.71    0.59
  161                  CONDUIT    389.02     0  12:51      4.19    0.64    0.61
  162                  CONDUIT    405.16     0  12:19      3.29    1.63    0.79
  163                  CONDUIT    420.38     0  00:04      4.64    0.69    0.80
  164                  CONDUIT    412.01     0  00:03      4.98    0.83    0.66
  169                  CONDUIT      0.22     0  13:00      0.00    0.00    0.01
  171                  CONDUIT      0.19     0  01:46      0.00    0.00    0.01
  176                  CONDUIT      0.45     0  12:20      0.00    0.00    0.01
  185                  CONDUIT      0.31     0  13:00      0.28    0.00    0.09
  186                  CONDUIT     21.92     0  00:23      0.51    0.07    0.33
  187                  CONDUIT    325.74     0  12:53      3.82    0.58    0.59
  188                  CONDUIT    291.88     0  12:54      3.72    0.64    0.50
  189                  CONDUIT    290.18     0  12:55      4.77    0.25    0.53
  190                  CONDUIT    250.12     0  12:59      3.28    0.56    0.53
  191                  CONDUIT    216.61     0  13:01      3.20    0.50    0.45
  192                  CONDUIT    203.95     0  13:05      3.53    0.29    0.42
  193                  CONDUIT    196.34     0  13:06      3.23    0.41    0.41
  197                  CONDUIT    276.74     0  12:56      2.82    0.80    0.62
  198                  CONDUIT    273.65     0  12:57      3.53    0.52    0.52
  332                  CONDUIT      0.04     0  12:40      0.00    0.00    0.01
  333                  CONDUIT      0.14     0  12:59      0.19    0.00    0.02
  334                  CONDUIT    174.89     0  12:47      3.19    0.17    0.32
  335                  CONDUIT    174.29     0  12:49      3.94    0.17    0.24
  336                  CONDUIT    174.29     0  12:49      7.45    0.01    0.06
  404                  CONDUIT    175.95     0  12:52      2.83    0.27    0.30
  482                  CONDUIT      0.01     0  12:53      0.00    0.00    0.01
  539                  CONDUIT      0.12     0  12:14      0.00    0.00    0.00
  545                  CONDUIT      0.91     0  13:00      0.57    0.00    0.19
  561                  CONDUIT    177.97     0  12:50      2.85    0.21    0.30
  572                  CONDUIT    176.93     0  12:51      2.52    0.23    0.36
  586                  CONDUIT    195.61     0  12:52      4.05    0.26    0.35
  587                  CONDUIT    193.70     0  12:53      3.95    0.26    0.35
  588                  CONDUIT    191.50     0  12:54      3.86    0.27    0.35
  589                  CONDUIT    188.82     0  12:55      3.83    0.27    0.35
  590                  CONDUIT    187.56     0  12:56      3.30    0.26    0.39
  591                  CONDUIT    186.01     0  12:57      3.32    0.36    0.39
  592                  CONDUIT    184.08     0  12:59      4.40    0.23    0.31
  68                   CONDUIT      0.02     0  13:00      0.02    0.00    0.17
  74                   CONDUIT    178.76     0  12:49      4.56    0.07    0.25
  77                   CONDUIT    174.67     0  12:57      4.59    0.06    0.18
  78                   CONDUIT      0.01     0  13:00      0.01    0.00    0.15
  83                   CONDUIT    173.51     0  12:59      4.27    0.10    0.27
  955                  CONDUIT      0.00     0  13:00      0.00    0.00    0.17
  956                  CONDUIT      0.11     0  13:00      0.19    0.00    0.02
  957                  CONDUIT      0.36     0  00:45      0.28    0.00    0.15
  958                  CONDUIT    176.14     0  12:53      4.37    0.10    0.22
  959                  CONDUIT    176.02     0  12:53      3.27    0.11    0.27
  960                  CONDUIT    176.18     0  12:54      2.89    0.21    0.30
  961                  CONDUIT      0.14     0  13:00      0.24    0.00    0.18
  962                  CONDUIT      0.04     0  13:00      0.00    0.00    0.01
  971                  CONDUIT      0.01     0  13:00      0.01    0.00    0.11
  979                  CONDUIT      0.01     0  13:00      0.00    0.00    0.00
  980                  CONDUIT      0.11     0  13:00      0.18    0.00    0.12
  981                  CONDUIT    183.37     0  12:59      4.94    0.11    0.21
  982                  CONDUIT    182.53     0  13:00      4.54    0.08    0.26
  983                  CONDUIT    179.48     0  12:47      3.35    0.20    0.27
  984                  CONDUIT    179.13     0  12:47      4.63    0.10    0.22
  985                  CONDUIT    178.86     0  12:48      4.10    0.11    0.23
  986                  CONDUIT    178.86     0  12:48      4.65    0.11    0.21
  998                  CONDUIT      0.10     0  01:09      0.20    0.00    0.14
  999                  CONDUIT    175.48     0  12:55      3.21    0.17    0.30
  
  
  ***************************
  Flow Classification Summary
  ***************************
  
  -------------------------------------------------------------------------------------
                      Adjusted    ---------- Fraction of Time in Flow Class ---------- 
                       /Actual         Up    Down  Sub   Sup   Up    Down  Norm  Inlet 
  Conduit               Length    Dry  Dry   Dry   Crit  Crit  Crit  Crit  Ltd   Ctrl  
  -------------------------------------------------------------------------------------
  1000                    1.00   0.00  0.00  0.00  0.01  0.99  0.00  0.00  0.00  0.00
  1001                    6.68   0.00  0.00  0.00  0.00  1.00  0.00  0.00  1.00  0.00
  1002                    1.00   0.00  0.00  0.00  0.00  1.00  0.00  0.00  0.04  0.00
  1023                    1.00   0.00  0.00  0.00  1.00  0.00  0.00  0.00  1.00  0.00
  1024                    1.00   0.00  0.00  0.00  0.00  1.00  0.00  0.00  0.98  0.00
  1025                    1.00   0.00  0.00  0.00  0.00  1.00  0.00  0.00  0.00  0.00
  1026                    1.00   0.00  0.00  0.00  0.04  0.96  0.00  0.00  0.04  0.00
  1027                    1.00   0.00  0.00  0.00  0.98  0.02  0.00  0.00  0.99  0.00
  1028                    1.00   0.00  0.00  0.00  0.00  1.00  0.00  0.00  0.00  0.00
  1029                    1.00   0.00  0.00  0.00  0.00  1.00  0.00  0.00  1.00  0.00
  1082                    1.09   0.00  0.00  0.00  1.00  0.00  0.00  0.00  0.01  0.00
  1099                    1.00   0.00  0.00  0.00  0.01  0.99  0.00  0.00  0.14  0.00
  1100                    1.00   0.00  0.00  0.00  0.01  0.99  0.00  0.00  1.00  0.00
  1110                    1.00   0.00  0.00  0.00  1.00  0.00  0.00  0.00  1.00  0.00
  1112                    1.00   0.00  0.00  0.00  0.03  0.97  0.00  0.00  0.99  0.00
  1141                    1.00   0.00  0.00  0.00  1.00  0.00  0.00  0.00  1.00  0.00
  1154                    1.09   0.00  0.00  0.00  0.00  1.00  0.00  0.00  1.00  0.00
  1162                    1.48   0.00  0.00  0.00  0.00  1.00  0.00  0.00  0.00  0.00
  1163                    1.00   0.00  0.00  0.00  0.00  1.00  0.00  0.00  1.00  0.00
  1164                    1.40   0.00  0.00  0.00  0.99  0.01  0.00  0.00  1.00  0.00
  1217                    1.00   0.00  0.00  0.00  1.00  0.00  0.00  0.00  1.00  0.00
  1218                    1.51   0.00  0.00  0.00  1.00  0.00  0.00  0.00  1.00  0.00
  160                     1.00   0.00  0.00  0.00  0.12  0.88  0.00  0.00  0.59  0.00
  161                     1.00   0.00  0.00  0.00  0.00  1.00  0.00  0.00  0.78  0.00
  162                     1.00   0.00  0.00  0.00  1.00  0.00  0.00  0.00  0.00  0.00
  163                     1.00   0.00  0.00  0.00  0.85  0.15  0.00  0.00  0.87  0.00
  164                     1.00   0.00  0.00  0.00  0.55  0.45  0.00  0.00  0.58  0.00
  169                     1.00   0.00  0.00  0.00  0.00  1.00  0.00  0.00  0.99  0.00
  171                     1.00   0.00  0.00  0.00  0.35  0.65  0.00  0.00  0.99  0.00
  176                     1.00   0.00  0.00  0.00  0.00  1.00  0.00  0.00  0.00  0.00
  185                     1.00   0.00  0.00  0.00  1.00  0.00  0.00  0.00  0.99  0.00
  186                     1.00   0.00  0.00  0.00  1.00  0.00  0.00  0.00  0.71  0.00
  187                     1.00   0.00  0.00  0.00  0.69  0.31  0.00  0.00  0.83  0.00
  188                     1.00   0.00  0.00  0.00  0.00  1.00  0.00  0.00  0.00  0.00
  189                     1.20   0.00  0.00  0.00  0.00  1.00  0.00  0.00  1.00  0.00
  190                     1.00   0.00  0.00  0.00  0.73  0.27  0.00  0.00  0.65  0.00
  191                     1.00   0.00  0.00  0.00  0.01  0.99  0.00  0.00  0.01  0.00
  192                     1.00   0.00  0.00  0.00  0.01  0.99  0.00  0.00  0.99  0.00
  193                     1.00   0.00  0.00  0.00  0.01  0.99  0.00  0.00  0.01  0.00
  197                     1.00   0.00  0.00  0.00  1.00  0.00  0.00  0.00  0.00  0.00
  198                     1.00   0.00  0.00  0.00  0.49  0.51  0.00  0.00  0.73  0.00
  332                     2.68   0.00  0.00  0.00  1.00  0.00  0.00  0.00  1.00  0.00
  333                     1.25   0.00  0.00  0.00  1.00  0.00  0.00  0.00  1.00  0.00
  334                     1.00   0.00  0.00  0.00  0.03  0.97  0.00  0.00  0.99  0.00
  335                     1.00   0.00  0.00  0.00  0.00  1.00  0.00  0.00  0.00  0.00
  336                     6.89   0.00  0.00  0.00  0.00  1.00  0.00  0.00  0.02  0.00
  404                     1.00   0.00  0.00  0.00  0.03  0.97  0.00  0.00  0.00  0.00
  482                     1.69   0.00  0.00  0.00  1.00  0.00  0.00  0.00  1.00  0.00
  539                    70.00   0.00  0.00  0.00  0.00  1.00  0.00  0.00  1.00  0.00
  545                     1.00   0.00  0.00  0.00  1.00  0.00  0.00  0.00  0.99  0.00
  561                     1.00   0.00  0.00  0.00  0.03  0.97  0.00  0.00  0.03  0.00
  572                     1.00   0.00  0.00  0.00  1.00  0.00  0.00  0.00  0.99  0.00
  586                     1.00   0.00  0.00  0.00  0.00  1.00  0.00  0.00  0.69  0.00
  587                     1.00   0.00  0.00  0.00  0.00  1.00  0.00  0.00  0.66  0.00
  588                     1.00   0.00  0.00  0.00  0.01  0.99  0.00  0.00  0.64  0.00
  589                     1.00   0.00  0.00  0.00  0.01  0.99  0.00  0.00  0.28  0.00
  590                     1.00   0.00  0.00  0.00  0.02  0.98  0.00  0.00  1.00  0.00
  591                     1.00   0.00  0.00  0.00  0.02  0.98  0.00  0.00  0.00  0.00
  592                     1.00   0.00  0.00  0.00  0.00  1.00  0.00  0.00  0.00  0.00
  68                      1.00   0.00  0.00  0.00  1.00  0.00  0.00  0.00  1.00  0.00
  74                      1.00   0.00  0.00  0.00  0.00  1.00  0.00  0.00  0.99  0.00
  77                      1.00   0.00  0.00  0.00  0.00  1.00  0.00  0.00  1.00  0.00
  78                      1.00   0.00  0.00  0.00  1.00  0.00  0.00  0.00  1.00  0.00
  83                      1.00   0.00  0.00  0.00  0.00  1.00  0.00  0.00  1.00  0.00
  955                     1.00   0.00  0.95  0.00  0.05  0.00  0.00  0.00  0.48  0.00
  956                     1.00   0.00  0.00  0.00  1.00  0.00  0.00  0.00  1.00  0.00
  957                     1.00   0.00  0.00  0.00  1.00  0.00  0.00  0.00  0.97  0.00
  958                     1.00   0.00  0.00  0.00  0.00  1.00  0.00  0.00  0.99  0.00
  959                     1.00   0.00  0.00  0.00  0.02  0.98  0.00  0.00  1.00  0.00
  960                     1.00   0.00  0.00  0.00  0.03  0.97  0.00  0.00  0.00  0.00
  961                     6.09   0.00  0.00  0.00  1.00  0.00  0.00  0.00  1.00  0.00
  962                     1.00   0.00  0.00  0.00  1.00  0.00  0.00  0.00  1.00  0.00
  971                     1.00   0.00  0.00  0.00  1.00  0.00  0.00  0.00  1.00  0.00
  979                     1.00   0.00  0.00  0.00  1.00  0.00  0.00  0.00  1.00  0.00
  980                     3.40   0.00  0.00  0.00  0.99  0.01  0.00  0.00  1.00  0.00
  981                     1.00   0.00  0.00  0.00  0.00  1.00  0.00  0.00  0.00  0.00
  982                     1.00   0.00  0.00  0.00  0.00  0.99  0.00  0.00  0.99  0.00
  983                     1.00   0.01  0.00  0.00  0.02  0.98  0.00  0.00  0.00  0.00
  984                     1.00   0.01  0.00  0.00  0.00  0.99  0.00  0.00  0.97  0.00
  985                     1.00   0.00  0.01  0.00  0.01  0.98  0.00  0.00  0.99  0.00
  986                     1.00   0.00  0.00  0.00  0.01  0.99  0.00  0.00  0.02  0.00
  998                     1.00   0.00  0.00  0.00  0.99  0.01  0.00  0.00  1.00  0.00
  999                     1.00   0.00  0.00  0.00  0.03  0.96  0.00  0.00  0.99  0.00
  
  
  *************************
  Conduit Surcharge Summary
  *************************
  
  ----------------------------------------------------------------------------
                                                           Hours        Hours 
                         --------- Hours Full --------   Above Full   Capacity
  Conduit                Both Ends  Upstream  Dnstream   Normal Flow   Limited
  ----------------------------------------------------------------------------
  162                         0.01      3.93      0.01      6.36         0.01
  163                         0.01      0.01      3.93      0.01         0.01
  

  Analysis begun on:  Fri Mar  6 15:02:26 2026
  Analysis ended on:  Fri Mar  6 15:02:26 2026
  Total elapsed time: < 1 sec