
  EPA STORM WATER MANAGEMENT MODEL - VERSION 5.2 (Build 5.2.4)
  ------------------------------------------------------------

  WARNING 04: minimum elevation drop used for Conduit Junction1.1
  
  ****************
  Analysis Options
  ****************
  Flow Units ............... GPM
  Process Models:
    Rainfall/Runoff ........ NO
    RDII ................... NO
    Snowmelt ............... NO
    Groundwater ............ NO
    Flow Routing ........... YES
    Ponding Allowed ........ YES
    Water Quality .......... NO
  Flow Routing Method ...... DYNWAVE
  Surcharge Method ......... EXTRAN
  Starting Date ............ 01/03/2019 00:00:00
  Ending Date .............. 01/03/2019 12:00:00
  Antecedent Dry Days ...... 0.0
  Report Time Step ......... 00:01:00
  Routing Time Step ........ 10.00 sec
  Variable Time Step ....... YES
  Maximum Trials ........... 8
  Number of Threads ........ 1
  Head Tolerance ........... 0.001000 ft
  
  
  **************************        Volume        Volume
  Flow Routing Continuity        acre-feet      10^6 gal
  **************************     ---------     ---------
  Dry Weather Inflow .......         0.066         0.022
  Wet Weather Inflow .......         0.000         0.000
  Groundwater Inflow .......         0.000         0.000
  RDII Inflow ..............         0.000         0.000
  External Inflow ..........         0.000         0.000
  External Outflow .........         0.064         0.021
  Flooding Loss ............         0.000         0.000
  Evaporation Loss .........         0.000         0.000
  Exfiltration Loss ........         0.000         0.000
  Initial Stored Volume ....         0.000         0.000
  Final Stored Volume ......         0.003         0.001
  Continuity Error (%) .....        -0.849
  
  
  *************************
  Highest Continuity Errors
  *************************
  Node Junction1 (2.06%)
  
  
  ***************************
  Time-Step Critical Elements
  ***************************
  None
  
  
  ********************************
  Highest Flow Instability Indexes
  ********************************
  All links are stable.
  
  
  *********************************
  Most Frequent Nonconverging Nodes
  *********************************
  Convergence obtained at all time steps.
  
  
  *************************
  Routing Time Step Summary
  *************************
  Minimum Time Step           :    10.00 sec
  Average Time Step           :    10.00 sec
  Maximum Time Step           :    10.00 sec
  % of Time in Steady State   :     0.00
  Average Iterations per Step :     7.55
  % of Steps Not Converging   :    89.98
  Time Step Frequencies       :
     10.000 -  1.585 sec      :   100.00 %
      1.585 -  0.251 sec      :     0.00 %
      0.251 -  0.040 sec      :     0.00 %
      0.040 -  0.006 sec      :     0.00 %
      0.006 -  0.001 sec      :     0.00 %
  
  
  ******************
  Node Depth Summary
  ******************
  
  ---------------------------------------------------------------------------------
                                 Average  Maximum  Maximum  Time of Max    Reported
                                   Depth    Depth      HGL   Occurrence   Max Depth
  Node                 Type         Feet     Feet     Feet  days hr:min        Feet
  ---------------------------------------------------------------------------------
  Junction1            JUNCTION    58.40   111.80   131.80     0  03:54      111.79
  Junction2            JUNCTION    55.17    86.44   106.44     0  09:59       86.44
  WWTP                 OUTFALL      0.03     0.17    80.17     0  10:00        0.17
  Community            STORAGE      2.83     4.05     4.05     0  03:54        4.05
  
  
  *******************
  Node Inflow Summary
  *******************
  
  -------------------------------------------------------------------------------------------------
                                  Maximum  Maximum                  Lateral       Total        Flow
                                  Lateral    Total  Time of Max      Inflow      Inflow     Balance
                                   Inflow   Inflow   Occurrence      Volume      Volume       Error
  Node                 Type           GPM      GPM  days hr:min    10^6 gal    10^6 gal     Percent
  -------------------------------------------------------------------------------------------------
  Junction1            JUNCTION      0.00   259.58     0  00:21           0      0.0219       2.105
  Junction2            JUNCTION      0.00   259.61     0  00:21           0      0.0215      -0.153
  WWTP                 OUTFALL       0.00   202.37     0  10:00           0      0.0209       0.000
  Community            STORAGE      30.00    30.00     0  00:00      0.0216      0.0216       0.186
  
  
  **********************
  Node Surcharge Summary
  **********************
  
  Surcharging occurs when water rises above the top of the highest conduit.
  ---------------------------------------------------------------------
                                               Max. Height   Min. Depth
                                   Hours       Above Crown    Below Rim
  Node                 Type      Surcharged           Feet         Feet
  ---------------------------------------------------------------------
  Junction1            JUNCTION       11.69        111.465        0.000
  Junction2            JUNCTION       11.64         86.109        0.000
  
  
  *********************
  Node Flooding Summary
  *********************
  
  No nodes were flooded.
  
  
  **********************
  Storage Volume Summary
  **********************
  
  ------------------------------------------------------------------------------------------------
                         Average    Avg   Evap  Exfil     Maximum    Max    Time of Max    Maximum
                          Volume   Pcnt   Pcnt   Pcnt      Volume   Pcnt     Occurrence    Outflow
  Storage Unit          1000 ftģ   Full   Loss   Loss    1000 ftģ   Full    days hr:min        GPM
  ------------------------------------------------------------------------------------------------
  Community                0.036   28.3    0.0    0.0       0.051   40.5       0  03:54     259.58
  
  
  ***********************
  Outfall Loading Summary
  ***********************
  
  -----------------------------------------------------------
                         Flow       Avg       Max       Total
                         Freq      Flow      Flow      Volume
  Outfall Node           Pcnt       GPM       GPM    10^6 gal
  -----------------------------------------------------------
  WWTP                  16.39    177.01    202.37       0.021
  -----------------------------------------------------------
  System                16.39    177.01    202.37       0.021
  
  
  ********************
  Link Flow Summary
  ********************
  
  -----------------------------------------------------------------------------
                                 Maximum  Time of Max   Maximum    Max/    Max/
                                  |Flow|   Occurrence   |Veloc|    Full    Full
  Link                 Type          GPM  days hr:min    ft/sec    Flow   Depth
  -----------------------------------------------------------------------------
  Junction1.1          CONDUIT    259.61     0  00:21      9.44  251.38    1.00
  Junction2.1          CONDUIT    202.37     0  10:00      6.38    0.51    0.75
  Community.3          PUMP       259.58     0  00:21              0.26
  
  
  ***************************
  Flow Classification Summary
  ***************************
  
  -------------------------------------------------------------------------------------
                      Adjusted    ---------- Fraction of Time in Flow Class ---------- 
                       /Actual         Up    Down  Sub   Sup   Up    Down  Norm  Inlet 
  Conduit               Length    Dry  Dry   Dry   Crit  Crit  Crit  Crit  Ltd   Ctrl  
  -------------------------------------------------------------------------------------
  Junction1.1             1.00   0.02  0.00  0.00  0.98  0.00  0.00  0.00  0.00  0.00
  Junction2.1             1.00   0.02  0.80  0.00  0.02  0.16  0.00  0.00  0.81  0.00
  
  
  *************************
  Conduit Surcharge Summary
  *************************
  
  ----------------------------------------------------------------------------
                                                           Hours        Hours 
                         --------- Hours Full --------   Above Full   Capacity
  Conduit                Both Ends  Upstream  Dnstream   Normal Flow   Limited
  ----------------------------------------------------------------------------
  Junction1.1                11.64     11.67     11.64      2.77        10.98
  Junction2.1                 0.01      0.01     11.64      0.01         0.01
  
  
  ***************
  Pumping Summary
  ***************
  
  ---------------------------------------------------------------------------------------------------------
                                                  Min       Avg       Max     Total     Power    % Time Off
                        Percent   Number of      Flow      Flow      Flow    Volume     Usage    Pump Curve
  Pump                 Utilized   Start-Ups       GPM       GPM       GPM  10^6 gal     Kw-hr    Low   High
  ---------------------------------------------------------------------------------------------------------
  Community.3             14.77          80      0.00    200.38    259.58     0.021      8.14    0.0   98.7
  

  Analysis begun on:  Fri Mar  6 15:02:26 2026
  Analysis ended on:  Fri Mar  6 15:02:26 2026
  Total elapsed time: < 1 sec