
  EPA STORM WATER MANAGEMENT MODEL - VERSION 5.2 (Build 5.2.4)
  ------------------------------------------------------------

  
  ERROR 207: duplicate ID name 125 at line 72 of [SUBCATCHMENT] section:
  125              Binney-East      1                D07DMH1225 2.209463 60.000000 175.029968 0.107583 0.000000        

  
  ERROR 207: duplicate ID name 125 at line 73 of [SUBCATCHMENT] section:
  125              Binney_W         1                934093   4.108755 71.000000 238.684437 0.371326 0.000000        

  
  ERROR 207: duplicate ID name Binney at line 257 of [SUBCATCHMENT] section:
  Binney           Street           Public           Way      1        934214   2.303512 97.000000 178.716315      

  
  ERROR 207: duplicate ID name PSMH at line 501 of [SUBCATCHMENT] section:
  PSMH             No.6             1                PSMH     No.6     0.350001 90.000000 69.663190 3.496011        

  
  ERROR 207: duplicate ID name PSMH at line 502 of [SUBCATCHMENT] section:
  PSMH             No.7             1                933166   0.540001 30.880000 86.529902 3.000000 0.000000        

  
  ERROR 207: duplicate ID name Som at line 521 of [SUBCATCHMENT] section:
  Som              Ave_1.1          1                SOM      Ave-SD4  0.816853 100.000000 106.424356 0.000000        

  
  ERROR 207: duplicate ID name Som at line 522 of [SUBCATCHMENT] section:
  Som              Ave_2            1                SOM      Ave      SD-8     2.210704 100.000000 175.079100      

  
  ERROR 207: duplicate ID name Som at line 523 of [SUBCATCHMENT] section:
  Som              Ave_3            1                SOM      Ave      SD-10    5.380791 100.000000 273.144253      

  
  ERROR 207: duplicate ID name Som at line 524 of [SUBCATCHMENT] section:
  Som              Ave_4            1                SOM      Ave      SD12     2.312228 100.000000 179.054113      

  
  ERROR 207: duplicate ID name PSMH at line 2847 of [JUNC] section:
  PSMH             No.3       108.810000 10.230000  0.000000   0.000000  

  
  ERROR 207: duplicate ID name PSMH at line 2848 of [JUNC] section:
  PSMH             No.4       113.620000 6.920000   0.000000   0.000000  

  
  ERROR 207: duplicate ID name PSMH at line 2849 of [JUNC] section:
  PSMH             No.5       114.590000 5.950000   0.000000   0.000000  

  
  ERROR 207: duplicate ID name PSMH at line 2850 of [JUNC] section:
  PSMH             No.6       115.240000 8.000000   0.000000   0.000000  

  
  ERROR 207: duplicate ID name SOM at line 3051 of [JUNC] section:
  SOM              Ave        SD-10-Dummy 111.066000 14.664000  0.000000  

  
  ERROR 207: duplicate ID name SOM at line 3052 of [JUNC] section:
  SOM              Ave        SD-14      105.325000 14.730700  0.000000  

  
  ERROR 207: duplicate ID name SOM at line 3053 of [JUNC] section:
  SOM              Ave        SD-6       121.960000 10.460000  0.000000  

  
  ERROR 207: duplicate ID name SOM at line 3054 of [JUNC] section:
  SOM              Ave        SD-7       121.637000 10.693000  0.000000  

  
  ERROR 207: duplicate ID name SOM at line 3055 of [JUNC] section:
  SOM              Ave        SD-8       116.530000 10.800000  0.000000  

  
  ERROR 207: duplicate ID name SOM at line 3056 of [JUNC] section:
  SOM              Ave        SD-9       113.000000 12.270000  0.000000  

  
  ERROR 207: duplicate ID name SOM at line 3057 of [JUNC] section:
  SOM              Ave        SD11       109.420000 17.394000  0.000000  

  
  ERROR 207: duplicate ID name SOM at line 3058 of [JUNC] section:
  SOM              Ave        SD12       107.323000 16.337000  0.000000  

  
  ERROR 207: duplicate ID name SOM at line 3059 of [JUNC] section:
  SOM              Ave        SD13       105.610000 15.955000  0.000000  

  
  ERROR 207: duplicate ID name SOM at line 3060 of [JUNC] section:
  SOM              Ave        SD14-Dummy 105.357500 14.692500  0.000000  

  
  ERROR 207: duplicate ID name SOM at line 3061 of [JUNC] section:
  SOM              Ave-SD1    133.700000 5.020000   0.000000   0.000000  

  
  ERROR 207: duplicate ID name SOM at line 3062 of [JUNC] section:
  SOM              Ave-SD3    129.860000 10.890000  0.000000   0.000000  

  
  ERROR 207: duplicate ID name SOM at line 3063 of [JUNC] section:
  SOM              Ave-SD4    124.080000 8.440000   0.000000   0.000000  

  
  ERROR 207: duplicate ID name SOM at line 3064 of [JUNC] section:
  SOM              Ave-SD5    123.620000 8.900000   0.000000   0.000000  

  
  ERROR 207: duplicate ID name SOM at line 3065 of [JUNC] section:
  SOM              AveSD-2    131.440000 9.910000   0.000000   0.000000  


  Analysis begun on:  Fri Mar  6 15:02:30 2026
  Analysis ended on:  Fri Mar  6 15:02:30 2026
  Total elapsed time: < 1 sec