
  EPA STORM WATER MANAGEMENT MODEL - VERSION 5.2 (Build 5.2.4)
  ------------------------------------------------------------

                                                                                Extran with surcharge in 2 foot circular conduits 
                                                                                SWMM CRADA Example 1 
  WARNING 04: minimum elevation drop used for Conduit pipe1
  WARNING 04: minimum elevation drop used for Conduit pipe3
  WARNING 04: minimum elevation drop used for Conduit pipe4
  WARNING 04: minimum elevation drop used for Conduit pipe5
  WARNING 04: minimum elevation drop used for Conduit pipe6
  WARNING 04: minimum elevation drop used for Conduit pipe7
  WARNING 04: minimum elevation drop used for Conduit pipe8
  WARNING 04: minimum elevation drop used for Conduit pipe9
  WARNING 04: minimum elevation drop used for Conduit outlet
  
  ****************
  Analysis Options
  ****************
  Flow Units ............... CFS
  Process Models:
    Rainfall/Runoff ........ NO
    RDII ................... NO
    Snowmelt ............... NO
    Groundwater ............ NO
    Flow Routing ........... YES
    Ponding Allowed ........ NO
    Water Quality .......... NO
  Flow Routing Method ...... DYNWAVE
  Surcharge Method ......... EXTRAN
  Starting Date ............ 02/22/2002 00:00:00
  Ending Date .............. 02/22/2002 01:40:00
  Antecedent Dry Days ...... 0.0
  Report Time Step ......... 00:00:10
  Routing Time Step ........ 10.00 sec
  Variable Time Step ....... YES
  Maximum Trials ........... 8
  Number of Threads ........ 1
  Head Tolerance ........... 0.001000 ft
  
  
  **************************        Volume        Volume
  Flow Routing Continuity        acre-feet      10^6 gal
  **************************     ---------     ---------
  Dry Weather Inflow .......         0.000         0.000
  Wet Weather Inflow .......         0.000         0.000
  Groundwater Inflow .......         0.000         0.000
  RDII Inflow ..............         0.000         0.000
  External Inflow ..........         1.272         0.415
  External Outflow .........         1.376         0.449
  Flooding Loss ............         0.000         0.000
  Evaporation Loss .........         0.000         0.000
  Exfiltration Loss ........         0.000         0.000
  Initial Stored Volume ....         0.000         0.000
  Final Stored Volume ......         0.061         0.020
  Continuity Error (%) .....       -12.989
  
  
  *************************
  Highest Continuity Errors
  *************************
  Node mid7 (-3.21%)
  Node mid6 (-2.21%)
  Node mid3 (-1.58%)
  Node mid8 (-1.33%)
  
  
  ***************************
  Time-Step Critical Elements
  ***************************
  Link pipe7 (28.49%)
  Link pipe8 (26.37%)
  Link pipe1 (16.95%)
  Link pipe6 (14.17%)
  Link pipe5 (4.16%)
  
  
  ********************************
  Highest Flow Instability Indexes
  ********************************
  Link pipe3 (73)
  Link pipe2 (71)
  Link pipe1 (71)
  Link pipe4 (70)
  Link pipe6 (60)
  
  
  *********************************
  Most Frequent Nonconverging Nodes
  *********************************
  Node Outlet (94.23%)
  Node mid2 (93.06%)
  Node mid3 (92.40%)
  Node mid4 (91.96%)
  Node mid5 (90.21%)
  
  
  *************************
  Routing Time Step Summary
  *************************
  Minimum Time Step           :     0.12 sec
  Average Time Step           :     4.38 sec
  Maximum Time Step           :    10.00 sec
  % of Time in Steady State   :     0.00
  Average Iterations per Step :     7.78
  % of Steps Not Converging   :    94.23
  Time Step Frequencies       :
     10.000 -  1.585 sec      :    95.61 %
      1.585 -  0.251 sec      :     4.31 %
      0.251 -  0.040 sec      :     0.07 %
      0.040 -  0.006 sec      :     0.00 %
      0.006 -  0.001 sec      :     0.00 %
  
  
  ******************
  Node Depth Summary
  ******************
  
  ---------------------------------------------------------------------------------
                                 Average  Maximum  Maximum  Time of Max    Reported
                                   Depth    Depth      HGL   Occurrence   Max Depth
  Node                 Type         Feet     Feet     Feet  days hr:min        Feet
  ---------------------------------------------------------------------------------
  Inflow               JUNCTION     1.41     1.78    81.78     0  01:23        1.76
  mid1                 JUNCTION     0.25     0.33    80.33     0  00:31        0.31
  mid2                 JUNCTION     3.49    12.69    22.69     0  01:05       10.50
  mid3                 JUNCTION     3.15    10.00    20.00     0  01:05        7.98
  mid4                 JUNCTION     2.89     9.49    19.49     0  01:05        7.24
  mid5                 JUNCTION     2.59     9.48    19.48     0  00:48        6.93
  mid6                 JUNCTION     2.24     9.27    19.27     0  00:55        7.18
  mid7                 JUNCTION     1.93     6.33    16.33     0  01:25        4.18
  mid8                 JUNCTION     1.69     3.50    13.50     0  00:25        3.11
  mid9                 JUNCTION     1.45     2.00    12.00     0  01:12        1.92
  Outlet               OUTFALL      1.14     1.43    11.43     0  01:12        1.40
  
  
  *******************
  Node Inflow Summary
  *******************
  
  -------------------------------------------------------------------------------------------------
                                  Maximum  Maximum                  Lateral       Total        Flow
                                  Lateral    Total  Time of Max      Inflow      Inflow     Balance
                                   Inflow   Inflow   Occurrence      Volume      Volume       Error
  Node                 Type           CFS      CFS  days hr:min    10^6 gal    10^6 gal     Percent
  -------------------------------------------------------------------------------------------------
  Inflow               JUNCTION     10.00    10.00     0  00:15       0.415       0.415       0.526
  mid1                 JUNCTION      0.00    15.24     0  01:23           0       0.412      -0.704
  mid2                 JUNCTION      0.00    15.27     0  00:31           0       0.415       0.994
  mid3                 JUNCTION      0.00    14.05     0  01:23           0       0.411      -1.559
  mid4                 JUNCTION      0.00    14.19     0  01:12           0       0.418      -0.801
  mid5                 JUNCTION      0.00    16.56     0  01:12           0       0.421       0.261
  mid6                 JUNCTION      0.00    17.45     0  01:12           0        0.42      -2.163
  mid7                 JUNCTION      0.00    17.89     0  01:12           0       0.429      -3.112
  mid8                 JUNCTION      0.00    18.24     0  00:55           0       0.443      -1.316
  mid9                 JUNCTION      0.00    18.96     0  01:12           0       0.449       0.118
  Outlet               OUTFALL       0.00    15.66     0  01:12           0       0.448       0.000
  
  
  **********************
  Node Surcharge Summary
  **********************
  
  Surcharging occurs when water rises above the top of the highest conduit.
  ---------------------------------------------------------------------
                                               Max. Height   Min. Depth
                                   Hours       Above Crown    Below Rim
  Node                 Type      Surcharged           Feet         Feet
  ---------------------------------------------------------------------
  mid2                 JUNCTION        1.44         10.687       67.313
  mid3                 JUNCTION        1.43          8.000        0.000
  mid4                 JUNCTION        1.41          7.490        0.510
  mid5                 JUNCTION        1.36          7.482        0.518
  mid6                 JUNCTION        1.11          7.274        0.726
  mid7                 JUNCTION        0.56          4.333        3.667
  mid8                 JUNCTION        0.08          1.501        6.499
  mid9                 JUNCTION        0.01          0.000        8.000
  
  
  *********************
  Node Flooding Summary
  *********************
  
  Flooding refers to all water that overflows a node, whether it ponds or not.
  --------------------------------------------------------------------------
                                                             Total   Maximum
                                 Maximum   Time of Max       Flood    Ponded
                        Hours       Rate    Occurrence      Volume     Depth
  Node                 Flooded       CFS   days hr:min    10^6 gal      Feet
  --------------------------------------------------------------------------
  mid3                    0.01      1.10      0  01:05       0.000     0.000
  
  
  ***********************
  Outfall Loading Summary
  ***********************
  
  -----------------------------------------------------------
                         Flow       Avg       Max       Total
                         Freq      Flow      Flow      Volume
  Outfall Node           Pcnt       CFS       CFS    10^6 gal
  -----------------------------------------------------------
  Outlet                96.64     10.96     15.66       0.448
  -----------------------------------------------------------
  System                96.64     10.96     15.66       0.448
  
  
  ********************
  Link Flow Summary
  ********************
  
  -----------------------------------------------------------------------------
                                 Maximum  Time of Max   Maximum    Max/    Max/
                                  |Flow|   Occurrence   |Veloc|    Full    Full
  Link                 Type          CFS  days hr:min    ft/sec    Flow   Depth
  -----------------------------------------------------------------------------
  pipe1                CONDUIT     15.24     0  01:23     11.45   18.02    0.51
  pipe2                CONDUIT     15.27     0  00:31     10.86    0.06    0.58
  pipe3                CONDUIT     14.05     0  01:23      4.47   16.62    1.00
  pipe4                CONDUIT     14.19     0  01:12      4.52   16.78    1.00
  pipe5                CONDUIT     16.56     0  01:12      5.27   19.59    1.00
  pipe6                CONDUIT     17.45     0  01:12      5.55   20.64    1.00
  pipe7                CONDUIT     17.89     0  01:12      5.69   21.16    1.00
  pipe8                CONDUIT     18.24     0  00:55      5.83   21.58    1.00
  pipe9                CONDUIT     18.96     0  01:12      6.32   22.43    1.00
  outlet               CONDUIT     15.66     0  01:12      5.51   18.53    0.86
  
  
  ***************************
  Flow Classification Summary
  ***************************
  
  -------------------------------------------------------------------------------------
                      Adjusted    ---------- Fraction of Time in Flow Class ---------- 
                       /Actual         Up    Down  Sub   Sup   Up    Down  Norm  Inlet 
  Conduit               Length    Dry  Dry   Dry   Crit  Crit  Crit  Crit  Ltd   Ctrl  
  -------------------------------------------------------------------------------------
  pipe1                   1.00   0.00  0.00  0.00  0.12  0.87  0.00  0.00  0.18  0.00
  pipe2                   1.00   0.00  0.00  0.00  0.41  0.59  0.00  0.00  0.99  0.00
  pipe3                   1.00   0.01  0.00  0.00  0.99  0.00  0.00  0.00  0.05  0.00
  pipe4                   1.00   0.01  0.00  0.00  0.99  0.00  0.00  0.00  0.04  0.00
  pipe5                   1.00   0.02  0.00  0.00  0.98  0.00  0.00  0.00  0.04  0.00
  pipe6                   1.00   0.03  0.00  0.00  0.97  0.00  0.00  0.00  0.06  0.00
  pipe7                   1.00   0.03  0.00  0.00  0.97  0.00  0.00  0.00  0.05  0.00
  pipe8                   1.00   0.04  0.00  0.00  0.96  0.00  0.00  0.00  0.03  0.00
  pipe9                   1.00   0.05  0.00  0.00  0.95  0.00  0.00  0.00  0.01  0.00
  outlet                  1.00   0.06  0.00  0.00  0.94  0.00  0.00  0.00  0.00  0.00
  
  
  *************************
  Conduit Surcharge Summary
  *************************
  
  ----------------------------------------------------------------------------
                                                           Hours        Hours 
                         --------- Hours Full --------   Above Full   Capacity
  Conduit                Both Ends  Upstream  Dnstream   Normal Flow   Limited
  ----------------------------------------------------------------------------
  pipe1                       0.01      0.01      0.01      1.64         0.01
  pipe2                       0.01      0.01      1.36      0.01         0.01
  pipe3                       1.28      1.36      1.36      1.63         0.90
  pipe4                       1.29      1.36      1.35      1.61         0.90
  pipe5                       1.20      1.35      1.26      1.60         0.94
  pipe6                       0.94      1.26      1.01      1.59         0.80
  pipe7                       0.45      1.01      0.48      1.57         0.39
  pipe8                       0.05      0.48      0.05      1.56         0.04
  pipe9                       0.01      0.05      0.01      1.55         0.01
  outlet                      0.01      0.01      0.01      1.53         0.01
  

  Analysis begun on:  Fri Mar  6 15:02:30 2026
  Analysis ended on:  Fri Mar  6 15:02:30 2026
  Total elapsed time: < 1 sec