
  EPA STORM WATER MANAGEMENT MODEL - VERSION 5.2 (Build 5.2.4)
  ------------------------------------------------------------

                                Extran with surcharge in 2 foot circular conduits 
                                SWMM CRADA Example 1 
  WARNING 04: minimum elevation drop used for Conduit pipe1
  WARNING 04: minimum elevation drop used for Conduit pipe2
  WARNING 04: minimum elevation drop used for Conduit pipe3
  WARNING 04: minimum elevation drop used for Conduit pipe4
  WARNING 04: minimum elevation drop used for Conduit pipe5
  WARNING 04: minimum elevation drop used for Conduit pipe6
  WARNING 04: minimum elevation drop used for Conduit pipe7
  WARNING 04: minimum elevation drop used for Conduit pipe8
  WARNING 04: minimum elevation drop used for Conduit pipe9
  WARNING 04: minimum elevation drop used for Conduit outlet
  
  ****************
  Analysis Options
  ****************
  Flow Units ............... CFS
  Process Models:
    Rainfall/Runoff ........ NO
    RDII ................... NO
    Snowmelt ............... NO
    Groundwater ............ NO
    Flow Routing ........... YES
    Ponding Allowed ........ NO
    Water Quality .......... NO
  Flow Routing Method ...... DYNWAVE
  Surcharge Method ......... EXTRAN
  Starting Date ............ 02/22/2002 00:00:00
  Ending Date .............. 02/22/2002 05:33:00
  Antecedent Dry Days ...... 0.0
  Report Time Step ......... 00:00:30
  Routing Time Step ........ 30.00 sec
  Variable Time Step ....... YES
  Maximum Trials ........... 8
  Number of Threads ........ 1
  Head Tolerance ........... 0.005000 ft
  
  
  **************************        Volume        Volume
  Flow Routing Continuity        acre-feet      10^6 gal
  **************************     ---------     ---------
  Dry Weather Inflow .......         0.000         0.000
  Wet Weather Inflow .......         0.000         0.000
  Groundwater Inflow .......         0.000         0.000
  RDII Inflow ..............         0.000         0.000
  External Inflow ..........         2.478         0.808
  External Outflow .........         2.477         0.807
  Flooding Loss ............         0.000         0.000
  Evaporation Loss .........         0.000         0.000
  Exfiltration Loss ........         0.000         0.000
  Initial Stored Volume ....         0.000         0.000
  Final Stored Volume ......         0.001         0.000
  Continuity Error (%) .....         0.009
  
  
  ***************************
  Time-Step Critical Elements
  ***************************
  Link pipe6 (94.95%)
  
  
  ********************************
  Highest Flow Instability Indexes
  ********************************
  All links are stable.
  
  
  *********************************
  Most Frequent Nonconverging Nodes
  *********************************
  Convergence obtained at all time steps.
  
  
  *************************
  Routing Time Step Summary
  *************************
  Minimum Time Step           :     0.50 sec
  Average Time Step           :     1.82 sec
  Maximum Time Step           :    30.00 sec
  % of Time in Steady State   :     0.00
  Average Iterations per Step :     2.01
  % of Steps Not Converging   :     0.00
  Time Step Frequencies       :
     30.000 - 13.228 sec      :     2.70 %
     13.228 -  5.833 sec      :     1.45 %
      5.833 -  2.572 sec      :     1.04 %
      2.572 -  1.134 sec      :     1.05 %
      1.134 -  0.500 sec      :    93.75 %
  
  
  ******************
  Node Depth Summary
  ******************
  
  ---------------------------------------------------------------------------------
                                 Average  Maximum  Maximum  Time of Max    Reported
                                   Depth    Depth      HGL   Occurrence   Max Depth
  Node                 Type         Feet     Feet     Feet  days hr:min        Feet
  ---------------------------------------------------------------------------------
  Inflow               JUNCTION     1.66     1.72    81.72     0  00:17        1.72
  mid1                 JUNCTION     1.49     1.54    81.54     0  00:17        1.54
  mid2                 JUNCTION     2.47     2.56    12.56     0  00:26        2.56
  mid3                 JUNCTION     2.34     2.42    12.42     0  00:31        2.42
  mid4                 JUNCTION     2.20     2.28    12.28     0  00:27        2.28
  mid5                 JUNCTION     2.07     2.14    12.14     0  00:25        2.14
  mid6                 JUNCTION     1.93     2.00    12.00     0  00:26        2.00
  mid7                 JUNCTION     1.80     1.87    11.87     0  00:24        1.87
  mid8                 JUNCTION     1.67     1.72    11.72     0  00:26        1.72
  mid9                 JUNCTION     1.49     1.54    11.54     0  00:29        1.54
  Outlet               OUTFALL      1.09     1.13    11.13     0  00:29        1.13
  
  
  *******************
  Node Inflow Summary
  *******************
  
  -------------------------------------------------------------------------------------------------
                                  Maximum  Maximum                  Lateral       Total        Flow
                                  Lateral    Total  Time of Max      Inflow      Inflow     Balance
                                   Inflow   Inflow   Occurrence      Volume      Volume       Error
  Node                 Type           CFS      CFS  days hr:min    10^6 gal    10^6 gal     Percent
  -------------------------------------------------------------------------------------------------
  Inflow               JUNCTION     10.00    10.00     0  00:15       0.808       0.808      -0.004
  mid1                 JUNCTION      0.00    10.00     0  00:15           0       0.808       0.013
  mid2                 JUNCTION      0.00    10.00     0  00:18           0       0.807      -0.008
  mid3                 JUNCTION      0.00    10.00     0  00:21           0       0.808       0.007
  mid4                 JUNCTION      0.00    10.00     0  00:21           0       0.807       0.001
  mid5                 JUNCTION      0.00    10.00     0  00:21           0       0.807       0.005
  mid6                 JUNCTION      0.00    10.00     0  00:24           0       0.807       0.004
  mid7                 JUNCTION      0.00    10.00     0  00:22           0       0.807       0.005
  mid8                 JUNCTION      0.00    10.00     0  00:24           0       0.807       0.005
  mid9                 JUNCTION      0.00    10.00     0  00:27           0       0.807       0.010
  Outlet               OUTFALL       0.00    10.00     0  00:29           0       0.807       0.000
  
  
  **********************
  Node Surcharge Summary
  **********************
  
  Surcharging occurs when water rises above the top of the highest conduit.
  ---------------------------------------------------------------------
                                               Max. Height   Min. Depth
                                   Hours       Above Crown    Below Rim
  Node                 Type      Surcharged           Feet         Feet
  ---------------------------------------------------------------------
  mid3                 JUNCTION        2.83          0.417        7.583
  mid4                 JUNCTION        2.81          0.277        7.723
  mid5                 JUNCTION        2.78          0.137        7.863
  
  
  *********************
  Node Flooding Summary
  *********************
  
  No nodes were flooded.
  
  
  ***********************
  Outfall Loading Summary
  ***********************
  
  -----------------------------------------------------------
                         Flow       Avg       Max       Total
                         Freq      Flow      Flow      Volume
  Outfall Node           Pcnt       CFS       CFS    10^6 gal
  -----------------------------------------------------------
  Outlet                99.65      9.65     10.00       0.807
  -----------------------------------------------------------
  System                99.65      9.65     10.00       0.807
  
  
  ********************
  Link Flow Summary
  ********************
  
  -----------------------------------------------------------------------------
                                 Maximum  Time of Max   Maximum    Max/    Max/
                                  |Flow|   Occurrence   |Veloc|    Full    Full
  Link                 Type          CFS  days hr:min    ft/sec    Flow   Depth
  -----------------------------------------------------------------------------
  pipe1                CONDUIT     10.00     0  00:15      3.67   11.83    0.81
  pipe2                CONDUIT     10.00     0  00:18      4.49   11.83    0.67
  pipe3                CONDUIT     10.00     0  00:21      3.18   11.83    1.00
  pipe4                CONDUIT     10.00     0  00:21      3.18   11.83    1.00
  pipe5                CONDUIT     10.00     0  00:21      3.18   11.83    1.00
  pipe6                CONDUIT     10.00     0  00:24      3.18   11.83    1.00
  pipe7                CONDUIT     10.00     0  00:22      3.22   11.83    0.97
  pipe8                CONDUIT     10.00     0  00:24      3.37   11.83    0.90
  pipe9                CONDUIT     10.00     0  00:27      3.65   11.83    0.81
  outlet               CONDUIT     10.00     0  00:29      4.49   11.83    0.67
  
  
  ***************************
  Flow Classification Summary
  ***************************
  
  -------------------------------------------------------------------------------------
                      Adjusted    ---------- Fraction of Time in Flow Class ---------- 
                       /Actual         Up    Down  Sub   Sup   Up    Down  Norm  Inlet 
  Conduit               Length    Dry  Dry   Dry   Crit  Crit  Crit  Crit  Ltd   Ctrl  
  -------------------------------------------------------------------------------------
  pipe1                   1.00   0.00  0.00  0.00  1.00  0.00  0.00  0.00  0.00  0.00
  pipe2                   1.00   0.00  0.00  0.00  0.00  0.00  0.00  1.00  0.00  0.00
  pipe3                   1.00   0.00  0.00  0.00  1.00  0.00  0.00  0.00  0.00  0.00
  pipe4                   1.00   0.01  0.00  0.00  0.99  0.00  0.00  0.00  0.01  0.00
  pipe5                   1.00   0.01  0.00  0.00  0.99  0.00  0.00  0.00  0.00  0.00
  pipe6                   1.00   0.01  0.00  0.00  0.99  0.00  0.00  0.00  0.00  0.00
  pipe7                   1.00   0.01  0.00  0.00  0.99  0.00  0.00  0.00  0.00  0.00
  pipe8                   1.00   0.02  0.00  0.00  0.98  0.00  0.00  0.00  0.00  0.00
  pipe9                   1.00   0.02  0.00  0.00  0.98  0.00  0.00  0.00  0.00  0.00
  outlet                  1.00   0.02  0.00  0.00  0.98  0.00  0.00  0.00  0.00  0.00
  
  
  *************************
  Conduit Surcharge Summary
  *************************
  
  ----------------------------------------------------------------------------
                                                           Hours        Hours 
                         --------- Hours Full --------   Above Full   Capacity
  Conduit                Both Ends  Upstream  Dnstream   Normal Flow   Limited
  ----------------------------------------------------------------------------
  pipe1                       0.01      0.01      0.01      3.20         0.01
  pipe2                       0.01      0.01      0.01      3.20         0.01
  pipe3                       2.83      2.85      2.83      3.20         2.83
  pipe4                       2.81      2.83      2.81      3.20         2.81
  pipe5                       2.78      2.81      2.78      3.21         2.78
  pipe6                       0.01      2.78      0.01      3.20         0.01
  pipe7                       0.01      0.01      0.01      3.20         0.01
  pipe8                       0.01      0.01      0.01      3.22         0.01
  pipe9                       0.01      0.01      0.01      3.22         0.01
  outlet                      0.01      0.01      0.01      3.22         0.01
  

  Analysis begun on:  Fri Mar  6 15:02:30 2026
  Analysis ended on:  Fri Mar  6 15:02:30 2026
  Total elapsed time: < 1 sec