
  EPA STORM WATER MANAGEMENT MODEL - VERSION 5.2 (Build 5.2.4)
  ------------------------------------------------------------

  
  ERROR 207: duplicate ID name SCS at line 42 of [RAINGAGE] section:
  SCS              Type      II     FL     TIMESERIES *               

  
  ERROR 207: duplicate ID name SCS at line 43 of [RAINGAGE] section:
  SCS              Type      B      24hr   TIMESERIES *               

  
  ERROR 207: duplicate ID name SCS at line 44 of [RAINGAGE] section:
  SCS              Type      B      6hr    TIMESERIES *               

  
  ERROR 207: duplicate ID name SCS at line 45 of [RAINGAGE] section:
  SCS              Type      II     CUMULATIVE00:06 TIMESERIES *               

  
  ERROR 207: duplicate ID name SCS at line 46 of [RAINGAGE] section:
  SCS              Type      IA     CUMULATIVE24:00 TIMESERIES *               

  
  ERROR 207: duplicate ID name SCS at line 47 of [RAINGAGE] section:
  SCS              Type      III    CUMULATIVE00:06 TIMESERIES *               

  
  ERROR 207: duplicate ID name SCS at line 48 of [RAINGAGE] section:
  SCS              Type      II     48     TIMESERIES *               

  
  ERROR 207: duplicate ID name SCS at line 49 of [RAINGAGE] section:
  SCS              Spillway  Design CUMULATIVE00:01 TIMESERIES *               

  
  ERROR 207: duplicate ID name SCS at line 50 of [RAINGAGE] section:
  SCS              TypeII    FLMod.1hr.1 CUMULATIVE00:06 TIMESERIES *               

  
  ERROR 207: duplicate ID name SCS at line 51 of [RAINGAGE] section:
  SCS              Type      II     FL     TIMESERIES *               

  
  ERROR 207: duplicate ID name SCS at line 52 of [RAINGAGE] section:
  SCS              Type      B      24hr.1 TIMESERIES *               

  
  ERROR 207: duplicate ID name SCS at line 53 of [RAINGAGE] section:
  SCS              Type      B      6hr.1  TIMESERIES *               

  
  ERROR 207: duplicate ID name SCS at line 54 of [RAINGAGE] section:
  SCS              Type      II.1   CUMULATIVE00:06 TIMESERIES *               

  
  ERROR 207: duplicate ID name SCS at line 55 of [RAINGAGE] section:
  SCS              Type      IA.1   CUMULATIVE00:06 TIMESERIES *               

  
  ERROR 207: duplicate ID name SCS at line 56 of [RAINGAGE] section:
  SCS              Type      III.1  CUMULATIVE00:06 TIMESERIES *               

  
  ERROR 207: duplicate ID name SCS at line 57 of [RAINGAGE] section:
  SCS              Type      II     48     TIMESERIES *               

  
  ERROR 207: duplicate ID name SCS at line 58 of [RAINGAGE] section:
  SCS              Spillway  Design.1 CUMULATIVE00:01 TIMESERIES *               

  
  ERROR 207: duplicate ID name Zone1 at line 60 of [RAINGAGE] section:
  Zone1            10min     >30yr  VOLUME TIMESERIES *               

  
  ERROR 207: duplicate ID name Zone1 at line 61 of [RAINGAGE] section:
  Zone1            15min     <30yr  VOLUME TIMESERIES *               

  
  ERROR 207: duplicate ID name Zone1 at line 62 of [RAINGAGE] section:
  Zone1            15min     >30yr  VOLUME TIMESERIES *               

  
  ERROR 207: duplicate ID name Zone1 at line 63 of [RAINGAGE] section:
  Zone1            20min     <30yr  VOLUME TIMESERIES *               

  
  ERROR 207: duplicate ID name Zone1 at line 64 of [RAINGAGE] section:
  Zone1            20min     >30yr  VOLUME TIMESERIES *               

  
  ERROR 207: duplicate ID name Zone1 at line 65 of [RAINGAGE] section:
  Zone1            25min     <30yr  VOLUME TIMESERIES *               

  
  ERROR 207: duplicate ID name Zone1 at line 66 of [RAINGAGE] section:
  Zone1            25min     >30yr  VOLUME TIMESERIES *               

  
  ERROR 207: duplicate ID name Zone1 at line 67 of [RAINGAGE] section:
  Zone1            30min     <30yr  VOLUME TIMESERIES *               

  
  ERROR 207: duplicate ID name Zone1 at line 68 of [RAINGAGE] section:
  Zone1            30min     >30yr  VOLUME TIMESERIES *               

  
  ERROR 207: duplicate ID name Zone1 at line 69 of [RAINGAGE] section:
  Zone1            45min     <30yr  VOLUME TIMESERIES *               

  
  ERROR 207: duplicate ID name Zone1 at line 70 of [RAINGAGE] section:
  Zone1            45min     >30yr  VOLUME TIMESERIES *               

  
  ERROR 207: duplicate ID name Zone1 at line 71 of [RAINGAGE] section:
  Zone1            60min     <30yr  VOLUME TIMESERIES *               

  
  ERROR 207: duplicate ID name Zone1 at line 72 of [RAINGAGE] section:
  Zone1            60min     >30yr  VOLUME TIMESERIES *               

  
  ERROR 207: duplicate ID name Zone1 at line 73 of [RAINGAGE] section:
  Zone1            90min     <30yr  VOLUME TIMESERIES *               

  
  ERROR 207: duplicate ID name Zone1 at line 74 of [RAINGAGE] section:
  Zone1            90min     >30yr  VOLUME TIMESERIES *               

  
  ERROR 207: duplicate ID name Zone1 at line 75 of [RAINGAGE] section:
  Zone1            180min    <30yr  VOLUME TIMESERIES *               

  
  ERROR 207: duplicate ID name Zone1 at line 76 of [RAINGAGE] section:
  Zone1            180min    >30yr  VOLUME TIMESERIES *               

  
  ERROR 207: duplicate ID name Zone1 at line 77 of [RAINGAGE] section:
  Zone1            270min    <30yr  VOLUME TIMESERIES *               

  
  ERROR 207: duplicate ID name Zone1 at line 78 of [RAINGAGE] section:
  Zone1            270min    >30yr  VOLUME TIMESERIES *               

  
  ERROR 207: duplicate ID name Zone1 at line 79 of [RAINGAGE] section:
  Zone1            360min    <30yr  VOLUME TIMESERIES *               

  
  ERROR 207: duplicate ID name Zone1 at line 80 of [RAINGAGE] section:
  Zone1            360min    >30yr  VOLUME TIMESERIES *               

  
  ERROR 207: duplicate ID name Zone1 at line 81 of [RAINGAGE] section:
  Zone1            540min    <30yr  VOLUME TIMESERIES *               

  
  ERROR 207: duplicate ID name Zone1 at line 82 of [RAINGAGE] section:
  Zone1            540min    >30yr  VOLUME TIMESERIES *               

  
  ERROR 207: duplicate ID name Zone1 at line 83 of [RAINGAGE] section:
  Zone1            720min    <30yr  VOLUME TIMESERIES *               

  
  ERROR 207: duplicate ID name Zone1 at line 84 of [RAINGAGE] section:
  Zone1            720min    >30yr  VOLUME TIMESERIES *               

  
  ERROR 207: duplicate ID name Zone1 at line 85 of [RAINGAGE] section:
  Zone1            1080min   <30yr  VOLUME TIMESERIES *               

  
  ERROR 207: duplicate ID name Zone1 at line 86 of [RAINGAGE] section:
  Zone1            1080min   >30yr  VOLUME TIMESERIES *               

  
  ERROR 207: duplicate ID name Zone1 at line 87 of [RAINGAGE] section:
  Zone1            1440min   <30yr  VOLUME TIMESERIES *               

  
  ERROR 207: duplicate ID name Zone1 at line 88 of [RAINGAGE] section:
  Zone1            1440min   >30yr  VOLUME TIMESERIES *               

  
  ERROR 207: duplicate ID name Zone1 at line 89 of [RAINGAGE] section:
  Zone1            1800min   <30yr  VOLUME TIMESERIES *               

  
  ERROR 207: duplicate ID name Zone1 at line 90 of [RAINGAGE] section:
  Zone1            1800min   >30yr  VOLUME TIMESERIES *               

  
  ERROR 207: duplicate ID name Zone1 at line 91 of [RAINGAGE] section:
  Zone1            2160min   <30yr  VOLUME TIMESERIES *               

  
  ERROR 207: duplicate ID name Zone1 at line 92 of [RAINGAGE] section:
  Zone1            2160min   >30yr  VOLUME TIMESERIES *               

  
  ERROR 207: duplicate ID name Zone1 at line 93 of [RAINGAGE] section:
  Zone1            2880min   <30yr  VOLUME TIMESERIES *               

  
  ERROR 207: duplicate ID name Zone1 at line 94 of [RAINGAGE] section:
  Zone1            2880min   >30yr  VOLUME TIMESERIES *               

  
  ERROR 207: duplicate ID name Zone1 at line 95 of [RAINGAGE] section:
  Zone1            4320min   <30yr  VOLUME TIMESERIES *               

  
  ERROR 207: duplicate ID name Zone1 at line 96 of [RAINGAGE] section:
  Zone1            4320min   >30yr  VOLUME TIMESERIES *               

  
  ERROR 207: duplicate ID name Zone2 at line 98 of [RAINGAGE] section:
  Zone2            10min     >30yr  VOLUME TIMESERIES *               

  
  ERROR 207: duplicate ID name Zone2 at line 99 of [RAINGAGE] section:
  Zone2            15min     <30yr  VOLUME TIMESERIES *               

  
  ERROR 207: duplicate ID name Zone2 at line 100 of [RAINGAGE] section:
  Zone2            15min     >30yr  VOLUME TIMESERIES *               

  
  ERROR 207: duplicate ID name Zone2 at line 101 of [RAINGAGE] section:
  Zone2            20min     <30yr  VOLUME TIMESERIES *               

  
  ERROR 207: duplicate ID name Zone2 at line 102 of [RAINGAGE] section:
  Zone2            20min     >30yr  VOLUME TIMESERIES *               

  
  ERROR 207: duplicate ID name Zone2 at line 103 of [RAINGAGE] section:
  Zone2            25min     <30yr  VOLUME TIMESERIES *               

  
  ERROR 207: duplicate ID name Zone2 at line 104 of [RAINGAGE] section:
  Zone2            25min     >30yr  VOLUME TIMESERIES *               

  
  ERROR 207: duplicate ID name Zone2 at line 105 of [RAINGAGE] section:
  Zone2            30min     <30yr  VOLUME TIMESERIES *               

  
  ERROR 207: duplicate ID name Zone2 at line 106 of [RAINGAGE] section:
  Zone2            30min     >30yr  VOLUME TIMESERIES *               

  
  ERROR 207: duplicate ID name Zone2 at line 107 of [RAINGAGE] section:
  Zone2            45min     <30yr  VOLUME TIMESERIES *               

  
  ERROR 207: duplicate ID name Zone2 at line 108 of [RAINGAGE] section:
  Zone2            45min     >30yr  VOLUME TIMESERIES *               

  
  ERROR 207: duplicate ID name Zone2 at line 109 of [RAINGAGE] section:
  Zone2            60min     <30yr  VOLUME TIMESERIES *               

  
  ERROR 207: duplicate ID name Zone2 at line 110 of [RAINGAGE] section:
  Zone2            60min     >30yr  VOLUME TIMESERIES *               

  
  ERROR 207: duplicate ID name Zone2 at line 111 of [RAINGAGE] section:
  Zone2            90min     <30yr  VOLUME TIMESERIES *               

  
  ERROR 207: duplicate ID name Zone2 at line 112 of [RAINGAGE] section:
  Zone2            90min     >30yr  VOLUME TIMESERIES *               

  
  ERROR 207: duplicate ID name Zone2 at line 113 of [RAINGAGE] section:
  Zone2            120min    <30yr  VOLUME TIMESERIES *               

  
  ERROR 207: duplicate ID name Zone2 at line 114 of [RAINGAGE] section:
  Zone2            120min    >30yr  VOLUME TIMESERIES *               

  
  ERROR 207: duplicate ID name Zone2 at line 115 of [RAINGAGE] section:
  Zone2            180min    <30yr  VOLUME TIMESERIES *               

  
  ERROR 207: duplicate ID name Zone2 at line 116 of [RAINGAGE] section:
  Zone2            180min    >30yr  VOLUME TIMESERIES *               

  
  ERROR 207: duplicate ID name Zone2 at line 117 of [RAINGAGE] section:
  Zone2            270min    <30yr  VOLUME TIMESERIES *               

  
  ERROR 207: duplicate ID name Zone2 at line 118 of [RAINGAGE] section:
  Zone2            270min    >30yr  VOLUME TIMESERIES *               

  
  ERROR 207: duplicate ID name Zone2 at line 119 of [RAINGAGE] section:
  Zone2            360min    <30yr  VOLUME TIMESERIES *               

  
  ERROR 207: duplicate ID name Zone2 at line 120 of [RAINGAGE] section:
  Zone2            360min    >30yr  VOLUME TIMESERIES *               

  
  ERROR 207: duplicate ID name Zone2 at line 121 of [RAINGAGE] section:
  Zone2            540min    <30yr  VOLUME TIMESERIES *               

  
  ERROR 207: duplicate ID name Zone2 at line 122 of [RAINGAGE] section:
  Zone2            540min    >30yr  VOLUME TIMESERIES *               

  
  ERROR 207: duplicate ID name Zone2 at line 123 of [RAINGAGE] section:
  Zone2            720min    <30yr  VOLUME TIMESERIES *               

  
  ERROR 207: duplicate ID name Zone2 at line 124 of [RAINGAGE] section:
  Zone2            720min    >30yr  VOLUME TIMESERIES *               

  
  ERROR 207: duplicate ID name Zone2 at line 125 of [RAINGAGE] section:
  Zone2            1080min   <30yr  VOLUME TIMESERIES *               

  
  ERROR 207: duplicate ID name Zone2 at line 126 of [RAINGAGE] section:
  Zone2            1080min   >30yr  VOLUME TIMESERIES *               

  
  ERROR 207: duplicate ID name Zone2 at line 127 of [RAINGAGE] section:
  Zone2            1440min   <30yr  VOLUME TIMESERIES *               

  
  ERROR 207: duplicate ID name Zone2 at line 128 of [RAINGAGE] section:
  Zone2            1440min   >30yr  VOLUME TIMESERIES *               

  
  ERROR 207: duplicate ID name Zone2 at line 129 of [RAINGAGE] section:
  Zone2            1800min   <30yr  VOLUME TIMESERIES *               

  
  ERROR 207: duplicate ID name Zone2 at line 130 of [RAINGAGE] section:
  Zone2            1800min   >30yr  VOLUME TIMESERIES *               

  
  ERROR 207: duplicate ID name Zone2 at line 131 of [RAINGAGE] section:
  Zone2            2160min   <30yr  VOLUME TIMESERIES *               

  
  ERROR 207: duplicate ID name Zone2 at line 132 of [RAINGAGE] section:
  Zone2            2160min   >30yr  VOLUME TIMESERIES *               

  
  ERROR 207: duplicate ID name Zone2 at line 133 of [RAINGAGE] section:
  Zone2            2880min   <30yr  VOLUME TIMESERIES *               

  
  ERROR 207: duplicate ID name Zone2 at line 134 of [RAINGAGE] section:
  Zone2            2880min   >30yr  VOLUME TIMESERIES *               

  
  ERROR 207: duplicate ID name Zone2 at line 135 of [RAINGAGE] section:
  Zone2            4320min   <30yr  VOLUME TIMESERIES *               

  
  ERROR 207: duplicate ID name Zone2 at line 136 of [RAINGAGE] section:
  Zone2            4320min   >30yr  VOLUME TIMESERIES *               

  
  ERROR 207: duplicate ID name Zone3 at line 138 of [RAINGAGE] section:
  Zone3            10min     >30yr  VOLUME TIMESERIES *               

  
  ERROR 207: duplicate ID name Zone3 at line 139 of [RAINGAGE] section:
  Zone3            15min     <30yr  VOLUME TIMESERIES *               

  
  ERROR 207: duplicate ID name Zone3 at line 140 of [RAINGAGE] section:
  Zone3            15min     >30yr  VOLUME TIMESERIES *               

  
  ERROR 207: duplicate ID name Zone3 at line 141 of [RAINGAGE] section:
  Zone3            20min     <30yr  VOLUME TIMESERIES *               

  
  ERROR 207: duplicate ID name Zone3 at line 142 of [RAINGAGE] section:
  Zone3            20min     >30yr  VOLUME TIMESERIES *               

  
  ERROR 207: duplicate ID name Zone3 at line 143 of [RAINGAGE] section:
  Zone3            25min     <30yr  VOLUME TIMESERIES *               

  
  ERROR 207: duplicate ID name Zone3 at line 144 of [RAINGAGE] section:
  Zone3            25min     >30yr  VOLUME TIMESERIES *               


  Analysis begun on:  Fri Mar  6 15:02:30 2026
  Analysis ended on:  Fri Mar  6 15:02:30 2026
  Total elapsed time: < 1 sec