
  EPA STORM WATER MANAGEMENT MODEL - VERSION 5.2 (Build 5.2.4)
  ------------------------------------------------------------

    XP File Date Stamp 12.00CP MINLEN5CP SPATIAL0.55 Input and Output FilesSW 
  WARNING 02: maximum depth increased for Node Basin89
  WARNING 02: maximum depth increased for Node N447.1
  WARNING 02: maximum depth increased for Node Node105
  
  *************
  Element Count
  *************
  Number of rain gages ...... 1
  Number of subcatchments ... 15
  Number of nodes ........... 49
  Number of links ........... 52
  Number of pollutants ...... 0
  Number of land uses ....... 0
  
  
  ****************
  Raingage Summary
  ****************
                                                      Data       Recording
  Name                 Data Source                    Type       Interval 
  ------------------------------------------------------------------------
  GAGE1                RainSeries1                    CUMULATIVE   6 min.
  
  
  ********************
  Subcatchment Summary
  ********************
  Name                       Area     Width   %Imperv    %Slope Rain Gage            Outlet              
  -----------------------------------------------------------------------------------------------------------
  Basin741                  24.92      1.00      0.00    4.7000 GAGE1                Basin74             
  Basin23.2                  8.94      1.00      0.00    2.4000 GAGE1                nBasin23.2          
  Basin23.1                  8.94      1.00      0.00    2.4000 GAGE1                nBasin23.1          
  Basin831                  28.81      1.00      0.00    5.2000 GAGE1                Basin83             
  Basin891                 104.40      1.00      0.00    3.0000 GAGE1                Basin89             
  Basin90.1                  8.15      1.00      0.00    6.6000 GAGE1                nBasin90.1          
  Basin90.2                  8.15      1.00      0.00    6.6000 GAGE1                nBasin90.2          
  Basin841                   9.49      1.00      0.00    5.8000 GAGE1                Basin84             
  Basin241                   9.68      1.00      0.00    1.9000 GAGE1                Basin24             
  Basin281                 147.96      1.00      0.00    2.8000 GAGE1                Basin28             
  Basin271                  59.13      1.00      0.00    4.7000 GAGE1                Basin27             
  Basin261                  16.59      1.00      0.00    3.4000 GAGE1                Basin26             
  Basin251                  12.27      1.00      0.00    1.6000 GAGE1                Basin25             
  Basin211                  29.72      1.00      0.00    0.5000 GAGE1                Basin21             
  Basin221                  30.45      1.00      0.00    4.5000 GAGE1                Basin22             
  
  
  ************
  Node Summary
  ************
                                           Invert      Max.    Ponded    External
  Name                 Type                 Elev.     Depth      Area    Inflow  
  -------------------------------------------------------------------------------
  Basin21              JUNCTION            441.00      6.00       0.0
  Basin22              JUNCTION            440.00      6.00       0.0
  nBasin23.1           JUNCTION            448.07      6.50       0.0
  nBasin23.2           JUNCTION            453.69      8.54       0.0
  Basin24              JUNCTION            458.84      4.21       0.0
  Basin25              JUNCTION            478.00      4.59       0.0
  Basin26              JUNCTION            475.00     15.00       0.0
  Basin27              JUNCTION            491.86      5.14       0.0
  Basin28              JUNCTION            511.00      6.00       0.0
  Basin74              JUNCTION            492.00      2.80       0.0
  Basin83              JUNCTION            467.65      1.75       0.0
  Basin84              JUNCTION            467.87      3.05       0.0
  Basin89              JUNCTION            480.00      5.00       0.0    Yes
  nBasin90.1           JUNCTION            477.22      2.05       0.0
  nBasin90.2           JUNCTION            472.90      3.30       0.0
  N177                 JUNCTION            450.00      9.23       0.0
  N179                 JUNCTION            446.48      5.25       0.0
  N180                 JUNCTION            445.98      3.79       0.0
  N183                 JUNCTION            461.58      4.60       0.0
  N187                 JUNCTION            474.69      2.75       0.0
  N404                 JUNCTION            439.29      5.71       0.0
  N447.1               JUNCTION            477.64      5.00       0.0
  N477                 JUNCTION            474.00     11.76       0.0
  Node105              JUNCTION            439.63      8.00       0.0
  Node168              JUNCTION            500.00      5.00       0.0
  Node171              JUNCTION            494.00      5.00       0.0
  Node172              JUNCTION            493.97      5.03       0.0
  Node174              JUNCTION            489.81      8.19       0.0
  Node175              JUNCTION            490.99      5.01       0.0
  Node205              JUNCTION            437.00      8.00       0.0
  Node232              JUNCTION            445.96      4.65       0.0
  Node233              JUNCTION            445.20      3.30       0.0
  Node256              JUNCTION            445.00      4.00       0.0
  Node385              JUNCTION            462.18      5.83       0.0
  Node386              JUNCTION            472.98      3.15       0.0
  Node388              JUNCTION            459.26      5.30       0.0
  Node92               JUNCTION            468.55      2.95       0.0
  Node93               JUNCTION            463.69      4.35       0.0
  Node94               JUNCTION            458.73      4.29       0.0
  Node95               JUNCTION            458.46      3.54       0.0
  Node96               JUNCTION            458.16      4.84       0.0
  Node99               JUNCTION            443.00      6.00       0.0
  Node108              OUTFALL             435.00     11.28       0.0
  Node116              STORAGE             464.00      4.00       0.0
  Node107              STORAGE             436.00     14.00       0.0
  Node165              STORAGE             510.00      5.00       0.0
  Node166              STORAGE             505.63      4.37       0.0
  Node167              STORAGE             502.89      5.11       0.0
  Node200              STORAGE             445.00      4.00       0.0
  
  
  ************
  Link Summary
  ************
  Name             From Node        To Node          Type            Length    %Slope Roughness
  ---------------------------------------------------------------------------------------------
  L172             nBasin23.1       N179             CONDUIT          383.6    0.3884    0.0140
  L173             N179             N180             CONDUIT          176.5    0.2266    0.0140
  L180             Basin74          N187             CONDUIT          396.2    4.3727    0.0140
  Link355          Node385          N177             CONDUIT          140.8    9.0183    0.0140
  Link360          N183             Node388          CONDUIT           51.8    4.4876    0.0140
  Link361          Basin83          N183             CONDUIT          346.6    1.4339    0.0140
  Link106          N447.1           nBasin90.1       CONDUIT           14.7    2.1818    0.0140
  Link107          Basin89          N447.1           CONDUIT          388.8    0.6070    0.0500
  Link108          nBasin90.1       nBasin90.2       CONDUIT          262.3    1.6092    0.0140
  Link109          nBasin90.2       Node386          CONDUIT           29.0   -0.7920    0.0140
  Link110          Node386          Basin84          CONDUIT          308.3    1.6252    0.0140
  Link111          Basin84          N183             CONDUIT          308.4    2.0078    0.0140
  Link112          Node388          Basin24          CONDUIT           33.5    1.2546    0.0140
  Link113          N187             Node92           CONDUIT          291.8    2.0707    0.0140
  Link114          Node92           Node93           CONDUIT          435.9    1.0919    0.0140
  Link115          Node93           Node385          CONDUIT           48.2    2.9656    0.0140
  Link116          Basin24          Node94           CONDUIT          254.1   -0.0016    0.0500
  Link117          Node94           Node95           CONDUIT          169.6    0.1592    0.0500
  Link118          Node95           Node96           CONDUIT          327.6    0.0916    0.0500
  Link123          Node116          Node96           CONDUIT          886.0    0.6592    0.0500
  Link129          Node105          Node205          CONDUIT          418.3    0.6288    0.0500
  Link130          Node205          Node107          CONDUIT          190.5    0.5251    0.0500
  Link131          Node107          Node108          CONDUIT          134.2    2.1842    0.0500
  Link192          Basin28          Node165          CONDUIT          123.3    0.8110    0.0500
  Link193          Node165          Node166          CONDUIT          197.2    1.2168    0.0140
  Link194          Node166          Node167          CONDUIT          414.7    0.8995    0.0140
  Link198          Node168          Node171          CONDUIT          422.4    1.4205    0.0500
  Link199          Node171          Node172          CONDUIT           85.5    0.0702    0.0140
  Link200          Node172          Basin27          CONDUIT          147.2    1.4332    0.0140
  Link201          Basin27          Node174          CONDUIT          106.4    1.9278    0.0140
  Link202          Node174          Node175          CONDUIT           61.8   -1.9110    0.0500
  Link203          Node175          Basin26          CONDUIT           57.0   13.2491    0.0140
  Link204          Basin26          N477             CONDUIT          858.2    0.1165    0.0500
  Link205          N477             Basin25          CONDUIT          130.8    0.7413    0.0140
  Link207          Basin25          Node116          CONDUIT          992.4    1.4109    0.0500
  Link237          N177             nBasin23.1       CONDUIT          389.9    0.4950    0.0140
  Link238          N180             Node200          CONDUIT          133.9    0.2090    0.0140
  Link240          Node96           Node99           CONDUIT          798.8    1.8983    0.0500
  Link246          Node99           Basin21          CONDUIT          737.7    0.2711    0.0500
  Link248          Basin21          Basin22          CONDUIT          466.2    0.2145    0.0140
  Link249          Basin22          N404             CONDUIT          296.6    0.1686    0.0140
  Link329          nBasin23.2       Node232          CONDUIT          556.8    1.3705    0.0140
  Link330          Node232          Node233          CONDUIT          188.9    0.4023    0.0140
  Link332          Node233          Node200          CONDUIT          289.5    0.0691    0.0140
  Link364          nBasin23.2       N177             CONDUIT          203.2    1.8161    0.0140
  Link368          Node256          Node99           CONDUIT           83.5    1.1977    0.0140
  1458.1           Node167          Node168          CONDUIT          105.1    0.0381    0.0140
  ditch            Node167          Node168          CONDUIT          105.1    2.7519    0.0500
  1544.1           N404             Node105          CONDUIT          157.9   -1.1716    0.0140
  1544.2           N404             Node105          CONDUIT          157.9   -0.2153    0.0140
  WEIR1atNode200-Node256 Node200          Node256          WEIR        
  WEIR2atNode200-Node99 Node200          Node99           WEIR        
  
  
  *********************
  Cross Section Summary
  *********************
                                        Full     Full     Hyd.     Max.   No. of     Full
  Conduit          Shape               Depth     Area     Rad.    Width  Barrels     Flow
  ---------------------------------------------------------------------------------------
  L172             CIRCULAR             2.00     3.14     0.50     2.00        1    13.09
  L173             CIRCULAR             2.00     3.14     0.50     2.00        1    10.00
  L180             CIRCULAR             1.00     0.79     0.25     1.00        1     6.92
  Link355          CIRCULAR             1.50     1.77     0.38     1.50        1    29.29
  Link360          CIRCULAR             2.00     3.14     0.50     2.00        1    44.50
  Link361          CIRCULAR             1.00     0.79     0.25     1.00        1     3.96
  Link106          CIRCULAR             1.00     0.79     0.25     1.00        1     4.89
  Link107          1                    5.00   126.79     1.96    58.00        1   459.14
  Link108          CIRCULAR             1.25     1.23     0.31     1.25        1     7.61
  Link109          CIRCULAR             1.50     1.77     0.38     1.50        1     8.68
  Link110          CIRCULAR             1.50     1.77     0.38     1.50        1    12.43
  Link111          CIRCULAR             1.50     1.77     0.38     1.50        1    13.82
  Link112          CIRCULAR             2.50     4.91     0.62     2.50        1    42.66
  Link113          CIRCULAR             1.00     0.79     0.25     1.00        1     4.76
  Link114          CIRCULAR             1.50     1.77     0.38     1.50        1    10.19
  Link115          CIRCULAR             1.50     1.77     0.38     1.50        1    16.80
  Link116          2                    3.00    24.00     1.00    22.00        1     2.82
  Link117          3                    3.00    24.00     1.00    22.00        1    28.38
  Link118          4                    3.00    24.00     1.00    22.00        1    21.53
  Link123          5                    4.20    57.40     1.99    26.00        1   218.94
  Link129          6                    8.00    32.00     1.72     6.00        1   108.41
  Link130          7                    8.00    32.00     1.72     6.00        1    99.06
  Link131          8                   10.00   200.00     4.99    20.10        1  2565.96
  Link192          9                    5.00    40.00     1.49    22.00        1   139.42
  Link193          CIRCULAR             1.50     1.77     0.38     1.50        1    10.76
  Link194          CIRCULAR             1.00     0.79     0.25     1.00        1     3.14
  Link198          10                   5.00    40.00     1.49    22.00        1   184.52
  Link199          CIRCULAR             2.00     3.14     0.50     2.00        1     5.56
  Link200          CIRCULAR             5.00    19.63     1.25     5.00        1   289.52
  Link201          CIRCULAR             2.00     3.14     0.50     2.00        1    29.17
  Link202          11                   5.00    40.00     1.49    22.00        1   214.02
  Link203          CIRCULAR             3.00     7.07     0.75     3.00        1   225.44
  Link204          12                  10.00   250.00     5.88    30.00        1   826.08
  Link205          CIRCULAR             3.00     7.07     0.75     3.00        1    53.33
  Link207          13                   3.00    24.00     1.00    22.00        1    84.50
  Link237          CIRCULAR             1.50     1.77     0.38     1.50        1     6.86
  Link238          CIRCULAR             2.50     4.91     0.62     2.50        1    17.41
  Link240          14                   4.20    57.40     1.99    26.00        1   371.54
  Link246          15                   4.20    57.40     1.99    26.00        1   140.41
  Link248          CIRCULAR             4.00    12.57     1.00     4.00        1    61.78
  Link249          CIRCULAR             4.00    12.57     1.00     4.00        1    54.77
  Link329          CIRCULAR             1.00     0.79     0.25     1.00        1     3.87
  Link330          CIRCULAR             1.00     0.79     0.25     1.00        1     2.10
  Link332          CIRCULAR             1.00     0.79     0.25     1.00        1     0.87
  Link364          CIRCULAR             1.50     1.77     0.38     1.50        1    13.14
  Link368          CIRCULAR             1.50     1.77     0.38     1.50        1    10.67
  1458.1           CIRCULAR             0.67     0.35     0.17     0.67        1     0.22
  ditch            16                   3.00    24.00     1.00    22.00        1   118.01
  1544.1           RECT_CLOSED          3.00    15.00     0.94     5.00        1   165.07
  1544.2           RECT_CLOSED          4.50    27.00     1.29     6.00        1   157.23
  
  
  ****************
  Transect Summary
  ****************

  Transect 1
  Area:  
              0.0001     0.0002     0.0005     0.0009     0.0014 
              0.0020     0.0027     0.0036     0.0045     0.0056 
              0.0067     0.0080     0.0094     0.0109     0.0125 
              0.0142     0.0161     0.0180     0.0201     0.0222 
              0.0261     0.0332     0.0436     0.0573     0.0742 
              0.0944     0.1178     0.1445     0.1745     0.2078 
              0.2427     0.2776     0.3126     0.3480     0.3841 
              0.4208     0.4581     0.4960     0.5346     0.5738 
              0.6136     0.6540     0.6951     0.7368     0.7791 
              0.8220     0.8656     0.9098     0.9546     1.0000 
  Hrad:  
              0.0144     0.0288     0.0432     0.0576     0.0719 
              0.0863     0.1007     0.1151     0.1295     0.1439 
              0.1583     0.1727     0.1870     0.2014     0.2158 
              0.2302     0.2446     0.2590     0.2734     0.2878 
              0.2802     0.2548     0.2345     0.2249     0.2243 
              0.2305     0.2412     0.2552     0.2714     0.2766 
              0.3217     0.3664     0.4095     0.4477     0.4854 
              0.5226     0.5593     0.5955     0.6312     0.6665 
              0.7014     0.7360     0.7701     0.8039     0.8373 
              0.8705     0.9033     0.9358     0.9680     1.0000 
  Width: 
              0.0024     0.0049     0.0073     0.0097     0.0122 
              0.0146     0.0170     0.0194     0.0219     0.0243 
              0.0267     0.0292     0.0316     0.0340     0.0365 
              0.0389     0.0413     0.0438     0.0462     0.0486 
              0.1200     0.1914     0.2628     0.3342     0.4056 
              0.4770     0.5484     0.6198     0.6912     0.7626 
              0.7633     0.7640     0.7678     0.7815     0.7951 
              0.8088     0.8224     0.8361     0.8498     0.8634 
              0.8771     0.8907     0.9044     0.9181     0.9317 
              0.9454     0.9590     0.9727     0.9863     1.0000 

  Transect 2
  Area:  
              0.0102     0.0208     0.0318     0.0432     0.0550 
              0.0672     0.0798     0.0928     0.1062     0.1200 
              0.1342     0.1488     0.1638     0.1792     0.1950 
              0.2112     0.2278     0.2448     0.2622     0.2800 
              0.2982     0.3168     0.3358     0.3552     0.3750 
              0.3952     0.4158     0.4368     0.4582     0.4800 
              0.5022     0.5248     0.5478     0.5712     0.5950 
              0.6192     0.6438     0.6688     0.6942     0.7200 
              0.7462     0.7728     0.7998     0.8272     0.8550 
              0.8832     0.9118     0.9408     0.9702     1.0000 
  Hrad:  
              0.0583     0.1135     0.1659     0.2160     0.2640 
              0.3102     0.3547     0.3977     0.4394     0.4800 
              0.5195     0.5580     0.5956     0.6325     0.6686 
              0.7040     0.7388     0.7731     0.8068     0.8400 
              0.8728     0.9051     0.9371     0.9687     1.0000 
              1.0310     1.0616     1.0920     1.1221     1.1520 
              1.1816     1.2111     1.2403     1.2693     1.2982 
              1.3269     1.3554     1.3837     1.4119     1.4400 
              1.4679     1.4957     1.5234     1.5510     1.5785 
              1.6058     1.6331     1.6602     1.6873     1.0000 
  Width: 
              0.1891     0.1964     0.2036     0.2109     0.2182 
              0.2255     0.2327     0.2400     0.2473     0.2545 
              0.2618     0.2691     0.2764     0.2836     0.2909 
              0.2982     0.3055     0.3127     0.3200     0.3273 
              0.3345     0.3418     0.3491     0.3564     0.3636 
              0.3709     0.3782     0.3855     0.3927     0.4000 
              0.4073     0.4145     0.4218     0.4291     0.4364 
              0.4436     0.4509     0.4582     0.4655     0.4727 
              0.4800     0.4873     0.4945     0.5018     0.5091 
              0.5164     0.5236     0.5309     0.5382     1.0000 

  Transect 3
  Area:  
              0.0102     0.0208     0.0318     0.0432     0.0550 
              0.0672     0.0798     0.0928     0.1062     0.1200 
              0.1342     0.1488     0.1638     0.1792     0.1950 
              0.2112     0.2278     0.2448     0.2622     0.2800 
              0.2982     0.3168     0.3358     0.3552     0.3750 
              0.3952     0.4158     0.4368     0.4582     0.4800 
              0.5022     0.5248     0.5478     0.5712     0.5950 
              0.6192     0.6438     0.6688     0.6942     0.7200 
              0.7462     0.7728     0.7998     0.8272     0.8550 
              0.8832     0.9118     0.9408     0.9702     1.0000 
  Hrad:  
              0.0583     0.1135     0.1659     0.2160     0.2640 
              0.3102     0.3547     0.3977     0.4394     0.4800 
              0.5195     0.5580     0.5956     0.6325     0.6686 
              0.7040     0.7388     0.7731     0.8068     0.8400 
              0.8728     0.9051     0.9371     0.9687     1.0000 
              1.0310     1.0616     1.0920     1.1221     1.1520 
              1.1816     1.2111     1.2403     1.2693     1.2982 
              1.3269     1.3554     1.3837     1.4119     1.4400 
              1.4679     1.4957     1.5234     1.5510     1.5785 
              1.6058     1.6331     1.6602     1.6873     1.0000 
  Width: 
              0.1891     0.1964     0.2036     0.2109     0.2182 
              0.2255     0.2327     0.2400     0.2473     0.2545 
              0.2618     0.2691     0.2764     0.2836     0.2909 
              0.2982     0.3055     0.3127     0.3200     0.3273 
              0.3345     0.3418     0.3491     0.3564     0.3636 
              0.3709     0.3782     0.3855     0.3927     0.4000 
              0.4073     0.4145     0.4218     0.4291     0.4364 
              0.4436     0.4509     0.4582     0.4655     0.4727 
              0.4800     0.4873     0.4945     0.5018     0.5091 
              0.5164     0.5236     0.5309     0.5382     1.0000 

  Transect 4
  Area:  
              0.0102     0.0208     0.0318     0.0432     0.0550 
              0.0672     0.0798     0.0928     0.1062     0.1200 
              0.1342     0.1488     0.1638     0.1792     0.1950 
              0.2112     0.2278     0.2448     0.2622     0.2800 
              0.2982     0.3168     0.3358     0.3552     0.3750 
              0.3952     0.4158     0.4368     0.4582     0.4800 
              0.5022     0.5248     0.5478     0.5712     0.5950 
              0.6192     0.6438     0.6688     0.6942     0.7200 
              0.7462     0.7728     0.7998     0.8272     0.8550 
              0.8832     0.9118     0.9408     0.9702     1.0000 
  Hrad:  
              0.0583     0.1135     0.1659     0.2160     0.2640 
              0.3102     0.3547     0.3977     0.4394     0.4800 
              0.5195     0.5580     0.5956     0.6325     0.6686 
              0.7040     0.7388     0.7731     0.8068     0.8400 
              0.8728     0.9051     0.9371     0.9687     1.0000 
              1.0310     1.0616     1.0920     1.1221     1.1520 
              1.1816     1.2111     1.2403     1.2693     1.2982 
              1.3269     1.3554     1.3837     1.4119     1.4400 
              1.4679     1.4957     1.5234     1.5510     1.5785 
              1.6058     1.6331     1.6602     1.6873     1.0000 
  Width: 
              0.1891     0.1964     0.2036     0.2109     0.2182 
              0.2255     0.2327     0.2400     0.2473     0.2545 
              0.2618     0.2691     0.2764     0.2836     0.2909 
              0.2982     0.3055     0.3127     0.3200     0.3273 
              0.3345     0.3418     0.3491     0.3564     0.3636 
              0.3709     0.3782     0.3855     0.3927     0.4000 
              0.4073     0.4145     0.4218     0.4291     0.4364 
              0.4436     0.4509     0.4582     0.4655     0.4727 
              0.4800     0.4873     0.4945     0.5018     0.5091 
              0.5164     0.5236     0.5309     0.5382     1.0000 

  Transect 5
  Area:  
              0.0005     0.0020     0.0046     0.0082     0.0128 
              0.0184     0.0251     0.0327     0.0414     0.0511 
              0.0619     0.0736     0.0864     0.1002     0.1151 
              0.1309     0.1478     0.1657     0.1846     0.2046 
              0.2255     0.2475     0.2705     0.2938     0.3174 
              0.3412     0.3653     0.3896     0.4142     0.4390 
              0.4640     0.4893     0.5148     0.5405     0.5665 
              0.5927     0.6192     0.6459     0.6728     0.7000 
              0.7275     0.7551     0.7830     0.8112     0.8396 
              0.8682     0.8974     0.9291     0.9632     1.0000 
  Hrad:  
              0.0199     0.0397     0.0596     0.0795     0.0993 
              0.1192     0.1390     0.1589     0.1788     0.1986 
              0.2185     0.2384     0.2582     0.2781     0.2979 
              0.3178     0.3377     0.3575     0.3774     0.3973 
              0.4171     0.4370     0.4620     0.4949     0.5274 
              0.5594     0.5910     0.6221     0.6528     0.6831 
              0.7129     0.7425     0.7716     0.8004     0.8289 
              0.8570     0.8848     0.9124     0.9396     0.9665 
              0.9932     1.0196     1.0458     1.0717     1.0974 
              1.1228     1.1046     1.0618     1.0275     1.0000 
  Width: 
              0.0269     0.0538     0.0806     0.1075     0.1344 
              0.1613     0.1882     0.2151     0.2419     0.2688 
              0.2957     0.3226     0.3495     0.3764     0.4032 
              0.4301     0.4570     0.4839     0.5108     0.5377 
              0.5645     0.5914     0.6105     0.6168     0.6231 
              0.6294     0.6357     0.6420     0.6483     0.6546 
              0.6609     0.6672     0.6735     0.6798     0.6862 
              0.6925     0.6988     0.7051     0.7114     0.7177 
              0.7240     0.7303     0.7366     0.7429     0.7492 
              0.7555     0.7969     0.8646     0.9323     1.0000 

  Transect 6
  Area:  
              0.0102     0.0208     0.0318     0.0432     0.0550 
              0.0672     0.0798     0.0928     0.1062     0.1200 
              0.1342     0.1488     0.1638     0.1792     0.1950 
              0.2112     0.2278     0.2448     0.2622     0.2800 
              0.2982     0.3168     0.3358     0.3552     0.3750 
              0.3952     0.4158     0.4368     0.4582     0.4800 
              0.5022     0.5248     0.5478     0.5712     0.5950 
              0.6192     0.6438     0.6688     0.6942     0.7200 
              0.7462     0.7728     0.7998     0.8272     0.8550 
              0.8832     0.9118     0.9408     0.9702     1.0000 
  Hrad:  
              0.0810     0.1446     0.1967     0.2407     0.2787 
              0.3123     0.3425     0.3699     0.3953     0.4188 
              0.4409     0.4618     0.4817     0.5007     0.5190 
              0.5367     0.5537     0.5703     0.5865     0.6023 
              0.6177     0.6329     0.6478     0.6624     0.6768 
              0.6910     0.7050     0.7189     0.7326     0.7462 
              0.7596     0.7730     0.7862     0.7993     0.8123 
              0.8253     0.8382     0.8509     0.8637     0.8763 
              0.8889     0.9014     0.9139     0.9263     0.9387 
              0.9511     0.9633     0.9756     0.9878     1.0000 
  Width: 
              0.3467     0.3600     0.3733     0.3867     0.4000 
              0.4133     0.4267     0.4400     0.4533     0.4667 
              0.4800     0.4933     0.5067     0.5200     0.5333 
              0.5467     0.5600     0.5733     0.5867     0.6000 
              0.6133     0.6267     0.6400     0.6533     0.6667 
              0.6800     0.6933     0.7067     0.7200     0.7333 
              0.7467     0.7600     0.7733     0.7867     0.8000 
              0.8133     0.8267     0.8400     0.8533     0.8667 
              0.8800     0.8933     0.9067     0.9200     0.9333 
              0.9467     0.9600     0.9733     0.9867     1.0000 

  Transect 7
  Area:  
              0.0102     0.0208     0.0318     0.0432     0.0550 
              0.0672     0.0798     0.0928     0.1062     0.1200 
              0.1342     0.1488     0.1638     0.1792     0.1950 
              0.2112     0.2278     0.2448     0.2622     0.2800 
              0.2982     0.3168     0.3358     0.3552     0.3750 
              0.3952     0.4158     0.4368     0.4582     0.4800 
              0.5022     0.5248     0.5478     0.5712     0.5950 
              0.6192     0.6438     0.6688     0.6942     0.7200 
              0.7462     0.7728     0.7998     0.8272     0.8550 
              0.8832     0.9118     0.9408     0.9702     1.0000 
  Hrad:  
              0.0810     0.1446     0.1967     0.2407     0.2787 
              0.3123     0.3425     0.3699     0.3953     0.4188 
              0.4409     0.4618     0.4817     0.5007     0.5190 
              0.5367     0.5537     0.5703     0.5865     0.6023 
              0.6177     0.6329     0.6478     0.6624     0.6768 
              0.6910     0.7050     0.7189     0.7326     0.7462 
              0.7596     0.7730     0.7862     0.7993     0.8123 
              0.8253     0.8382     0.8509     0.8637     0.8763 
              0.8889     0.9014     0.9139     0.9263     0.9387 
              0.9511     0.9633     0.9756     0.9878     1.0000 
  Width: 
              0.3467     0.3600     0.3733     0.3867     0.4000 
              0.4133     0.4267     0.4400     0.4533     0.4667 
              0.4800     0.4933     0.5067     0.5200     0.5333 
              0.5467     0.5600     0.5733     0.5867     0.6000 
              0.6133     0.6267     0.6400     0.6533     0.6667 
              0.6800     0.6933     0.7067     0.7200     0.7333 
              0.7467     0.7600     0.7733     0.7867     0.8000 
              0.8133     0.8267     0.8400     0.8533     0.8667 
              0.8800     0.8933     0.9067     0.9200     0.9333 
              0.9467     0.9600     0.9733     0.9867     1.0000 

  Transect 8
  Area:  
              0.0199     0.0398     0.0597     0.0796     0.0996 
              0.1195     0.1394     0.1593     0.1793     0.1992 
              0.2191     0.2391     0.2590     0.2790     0.2990 
              0.3189     0.3389     0.3588     0.3788     0.3988 
              0.4188     0.4388     0.4588     0.4788     0.4988 
              0.5188     0.5388     0.5588     0.5788     0.5988 
              0.6188     0.6388     0.6589     0.6789     0.6990 
              0.7190     0.7390     0.7591     0.7791     0.7992 
              0.8193     0.8393     0.8594     0.8795     0.8996 
              0.9196     0.9397     0.9598     0.9799     1.0000 
  Hrad:  
              0.0391     0.0767     0.1129     0.1478     0.1814 
              0.2138     0.2450     0.2752     0.3044     0.3326 
              0.3598     0.3862     0.4118     0.4365     0.4606 
              0.4838     0.5064     0.5283     0.5496     0.5703 
              0.5904     0.6100     0.6290     0.6475     0.6656 
              0.6831     0.7002     0.7169     0.7331     0.7490 
              0.7644     0.7795     0.7942     0.8086     0.8227 
              0.8364     0.8498     0.8629     0.8757     0.8882 
              0.9005     0.9125     0.9243     0.9358     0.9470 
              0.9581     0.9689     0.9794     0.9898     1.0000 
  Width: 
              0.9902     0.9904     0.9906     0.9908     0.9910 
              0.9912     0.9914     0.9916     0.9918     0.9920 
              0.9922     0.9924     0.9926     0.9928     0.9930 
              0.9932     0.9934     0.9936     0.9938     0.9940 
              0.9942     0.9944     0.9946     0.9948     0.9950 
              0.9952     0.9954     0.9956     0.9958     0.9960 
              0.9962     0.9964     0.9966     0.9968     0.9970 
              0.9972     0.9974     0.9976     0.9978     0.9980 
              0.9982     0.9984     0.9986     0.9988     0.9990 
              0.9992     0.9994     0.9996     0.9998     1.0000 

  Transect 9
  Area:  
              0.0102     0.0208     0.0318     0.0432     0.0550 
              0.0672     0.0798     0.0928     0.1062     0.1200 
              0.1342     0.1488     0.1638     0.1792     0.1950 
              0.2112     0.2278     0.2448     0.2622     0.2800 
              0.2982     0.3168     0.3358     0.3552     0.3750 
              0.3952     0.4158     0.4368     0.4582     0.4800 
              0.5022     0.5248     0.5478     0.5712     0.5950 
              0.6192     0.6438     0.6688     0.6942     0.7200 
              0.7462     0.7728     0.7998     0.8272     0.8550 
              0.8832     0.9118     0.9408     0.9702     1.0000 
  Hrad:  
              0.0642     0.1236     0.1788     0.2305     0.2792 
              0.3253     0.3693     0.4112     0.4515     0.4903 
              0.5277     0.5639     0.5991     0.6333     0.6666 
              0.6991     0.7310     0.7621     0.7927     0.8228 
              0.8523     0.8814     0.9101     0.9384     0.9663 
              0.9939     1.0211     1.0481     1.0748     1.1013 
              1.1275     1.1535     1.1793     1.2049     1.2303 
              1.2555     1.2806     1.3055     1.3303     1.3549 
              1.3794     1.4038     1.4280     1.4522     1.4762 
              1.5002     1.5240     1.5478     1.5714     1.0000 
  Width: 
              0.1891     0.1964     0.2036     0.2109     0.2182 
              0.2255     0.2327     0.2400     0.2473     0.2545 
              0.2618     0.2691     0.2764     0.2836     0.2909 
              0.2982     0.3055     0.3127     0.3200     0.3273 
              0.3345     0.3418     0.3491     0.3564     0.3636 
              0.3709     0.3782     0.3855     0.3927     0.4000 
              0.4073     0.4145     0.4218     0.4291     0.4364 
              0.4436     0.4509     0.4582     0.4655     0.4727 
              0.4800     0.4873     0.4945     0.5018     0.5091 
              0.5164     0.5236     0.5309     0.5382     1.0000 

  Transect 10
  Area:  
              0.0102     0.0208     0.0318     0.0432     0.0550 
              0.0672     0.0798     0.0928     0.1062     0.1200 
              0.1342     0.1488     0.1638     0.1792     0.1950 
              0.2112     0.2278     0.2448     0.2622     0.2800 
              0.2982     0.3168     0.3358     0.3552     0.3750 
              0.3952     0.4158     0.4368     0.4582     0.4800 
              0.5022     0.5248     0.5478     0.5712     0.5950 
              0.6192     0.6438     0.6688     0.6942     0.7200 
              0.7462     0.7728     0.7998     0.8272     0.8550 
              0.8832     0.9118     0.9408     0.9702     1.0000 
  Hrad:  
              0.0642     0.1236     0.1788     0.2305     0.2792 
              0.3253     0.3693     0.4112     0.4515     0.4903 
              0.5277     0.5639     0.5991     0.6333     0.6666 
              0.6991     0.7310     0.7621     0.7927     0.8228 
              0.8523     0.8814     0.9101     0.9384     0.9663 
              0.9939     1.0211     1.0481     1.0748     1.1013 
              1.1275     1.1535     1.1793     1.2049     1.2303 
              1.2555     1.2806     1.3055     1.3303     1.3549 
              1.3794     1.4038     1.4280     1.4522     1.4762 
              1.5002     1.5240     1.5478     1.5714     1.0000 
  Width: 
              0.1891     0.1964     0.2036     0.2109     0.2182 
              0.2255     0.2327     0.2400     0.2473     0.2545 
              0.2618     0.2691     0.2764     0.2836     0.2909 
              0.2982     0.3055     0.3127     0.3200     0.3273 
              0.3345     0.3418     0.3491     0.3564     0.3636 
              0.3709     0.3782     0.3855     0.3927     0.4000 
              0.4073     0.4145     0.4218     0.4291     0.4364 
              0.4436     0.4509     0.4582     0.4655     0.4727 
              0.4800     0.4873     0.4945     0.5018     0.5091 
              0.5164     0.5236     0.5309     0.5382     1.0000 

  Transect 11
  Area:  
              0.0102     0.0208     0.0318     0.0432     0.0550 
              0.0672     0.0798     0.0928     0.1062     0.1200 
              0.1342     0.1488     0.1638     0.1792     0.1950 
              0.2112     0.2278     0.2448     0.2622     0.2800 
              0.2982     0.3168     0.3358     0.3552     0.3750 
              0.3952     0.4158     0.4368     0.4582     0.4800 
              0.5022     0.5248     0.5478     0.5712     0.5950 
              0.6192     0.6438     0.6688     0.6942     0.7200 
              0.7462     0.7728     0.7998     0.8272     0.8550 
              0.8832     0.9118     0.9408     0.9702     1.0000 
  Hrad:  
              0.0642     0.1236     0.1788     0.2305     0.2792 
              0.3253     0.3693     0.4112     0.4515     0.4903 
              0.5277     0.5639     0.5991     0.6333     0.6666 
              0.6991     0.7310     0.7621     0.7927     0.8228 
              0.8523     0.8814     0.9101     0.9384     0.9663 
              0.9939     1.0211     1.0481     1.0748     1.1013 
              1.1275     1.1535     1.1793     1.2049     1.2303 
              1.2555     1.2806     1.3055     1.3303     1.3549 
              1.3794     1.4038     1.4280     1.4522     1.4762 
              1.5002     1.5240     1.5478     1.5714     1.0000 
  Width: 
              0.1891     0.1964     0.2036     0.2109     0.2182 
              0.2255     0.2327     0.2400     0.2473     0.2545 
              0.2618     0.2691     0.2764     0.2836     0.2909 
              0.2982     0.3055     0.3127     0.3200     0.3273 
              0.3345     0.3418     0.3491     0.3564     0.3636 
              0.3709     0.3782     0.3855     0.3927     0.4000 
              0.4073     0.4145     0.4218     0.4291     0.4364 
              0.4436     0.4509     0.4582     0.4655     0.4727 
              0.4800     0.4873     0.4945     0.5018     0.5091 
              0.5164     0.5236     0.5309     0.5382     1.0000 

  Transect 12
  Area:  
              0.0161     0.0323     0.0487     0.0653     0.0820 
              0.0989     0.1159     0.1331     0.1505     0.1680 
              0.1857     0.2035     0.2215     0.2397     0.2580 
              0.2765     0.2951     0.3139     0.3329     0.3520 
              0.3713     0.3907     0.4103     0.4301     0.4500 
              0.4701     0.4903     0.5107     0.5313     0.5520 
              0.5729     0.5939     0.6151     0.6365     0.6580 
              0.6797     0.7015     0.7235     0.7457     0.7680 
              0.7905     0.8131     0.8359     0.8589     0.8820 
              0.9053     0.9287     0.9523     0.9761     1.0000 
  Hrad:  
              0.0333     0.0655     0.0967     0.1269     0.1562 
              0.1847     0.2123     0.2392     0.2653     0.2908 
              0.3156     0.3399     0.3635     0.3866     0.4092 
              0.4313     0.4529     0.4741     0.4948     0.5152 
              0.5351     0.5547     0.5739     0.5928     0.6114 
              0.6296     0.6476     0.6652     0.6826     0.6997 
              0.7166     0.7333     0.7497     0.7658     0.7818 
              0.7976     0.8131     0.8285     0.8437     0.8587 
              0.8735     0.8881     0.9026     0.9170     0.9312 
              0.9452     0.9591     0.9729     0.9865     1.0000 
  Width: 
              0.6733     0.6800     0.6867     0.6933     0.7000 
              0.7067     0.7133     0.7200     0.7267     0.7333 
              0.7400     0.7467     0.7533     0.7600     0.7667 
              0.7733     0.7800     0.7867     0.7933     0.8000 
              0.8067     0.8133     0.8200     0.8267     0.8333 
              0.8400     0.8467     0.8533     0.8600     0.8667 
              0.8733     0.8800     0.8867     0.8933     0.9000 
              0.9067     0.9133     0.9200     0.9267     0.9333 
              0.9400     0.9467     0.9533     0.9600     0.9667 
              0.9733     0.9800     0.9867     0.9933     1.0000 

  Transect 13
  Area:  
              0.0102     0.0208     0.0318     0.0432     0.0550 
              0.0672     0.0798     0.0928     0.1062     0.1200 
              0.1342     0.1488     0.1638     0.1792     0.1950 
              0.2112     0.2278     0.2448     0.2622     0.2800 
              0.2982     0.3168     0.3358     0.3552     0.3750 
              0.3952     0.4158     0.4368     0.4582     0.4800 
              0.5022     0.5248     0.5478     0.5712     0.5950 
              0.6192     0.6438     0.6688     0.6942     0.7200 
              0.7462     0.7728     0.7998     0.8272     0.8550 
              0.8832     0.9118     0.9408     0.9702     1.0000 
  Hrad:  
              0.0583     0.1135     0.1659     0.2160     0.2640 
              0.3102     0.3547     0.3977     0.4394     0.4800 
              0.5195     0.5580     0.5956     0.6325     0.6686 
              0.7040     0.7388     0.7731     0.8068     0.8400 
              0.8728     0.9051     0.9371     0.9687     1.0000 
              1.0310     1.0616     1.0920     1.1221     1.1520 
              1.1816     1.2111     1.2403     1.2693     1.2982 
              1.3269     1.3554     1.3837     1.4119     1.4400 
              1.4679     1.4957     1.5234     1.5510     1.5785 
              1.6058     1.6331     1.6602     1.6873     1.0000 
  Width: 
              0.1891     0.1964     0.2036     0.2109     0.2182 
              0.2255     0.2327     0.2400     0.2473     0.2545 
              0.2618     0.2691     0.2764     0.2836     0.2909 
              0.2982     0.3055     0.3127     0.3200     0.3273 
              0.3345     0.3418     0.3491     0.3564     0.3636 
              0.3709     0.3782     0.3855     0.3927     0.4000 
              0.4073     0.4145     0.4218     0.4291     0.4364 
              0.4436     0.4509     0.4582     0.4655     0.4727 
              0.4800     0.4873     0.4945     0.5018     0.5091 
              0.5164     0.5236     0.5309     0.5382     1.0000 

  Transect 14
  Area:  
              0.0005     0.0020     0.0046     0.0082     0.0128 
              0.0184     0.0251     0.0327     0.0414     0.0511 
              0.0619     0.0736     0.0864     0.1002     0.1151 
              0.1309     0.1478     0.1657     0.1846     0.2046 
              0.2255     0.2475     0.2705     0.2938     0.3174 
              0.3412     0.3653     0.3896     0.4142     0.4390 
              0.4640     0.4893     0.5148     0.5405     0.5665 
              0.5927     0.6192     0.6459     0.6728     0.7000 
              0.7275     0.7551     0.7830     0.8112     0.8396 
              0.8682     0.8974     0.9291     0.9632     1.0000 
  Hrad:  
              0.0199     0.0397     0.0596     0.0795     0.0993 
              0.1192     0.1390     0.1589     0.1788     0.1986 
              0.2185     0.2384     0.2582     0.2781     0.2979 
              0.3178     0.3377     0.3575     0.3774     0.3973 
              0.4171     0.4370     0.4620     0.4949     0.5274 
              0.5594     0.5910     0.6221     0.6528     0.6831 
              0.7129     0.7425     0.7716     0.8004     0.8289 
              0.8570     0.8848     0.9124     0.9396     0.9665 
              0.9932     1.0196     1.0458     1.0717     1.0974 
              1.1228     1.1046     1.0618     1.0275     1.0000 
  Width: 
              0.0269     0.0538     0.0806     0.1075     0.1344 
              0.1613     0.1882     0.2151     0.2419     0.2688 
              0.2957     0.3226     0.3495     0.3764     0.4032 
              0.4301     0.4570     0.4839     0.5108     0.5377 
              0.5645     0.5914     0.6105     0.6168     0.6231 
              0.6294     0.6357     0.6420     0.6483     0.6546 
              0.6609     0.6672     0.6735     0.6798     0.6862 
              0.6925     0.6988     0.7051     0.7114     0.7177 
              0.7240     0.7303     0.7366     0.7429     0.7492 
              0.7555     0.7969     0.8646     0.9323     1.0000 

  Transect 15
  Area:  
              0.0005     0.0020     0.0046     0.0082     0.0128 
              0.0184     0.0251     0.0327     0.0414     0.0511 
              0.0619     0.0736     0.0864     0.1002     0.1151 
              0.1309     0.1478     0.1657     0.1846     0.2046 
              0.2255     0.2475     0.2705     0.2938     0.3174 
              0.3412     0.3653     0.3896     0.4142     0.4390 
              0.4640     0.4893     0.5148     0.5405     0.5665 
              0.5927     0.6192     0.6459     0.6728     0.7000 
              0.7275     0.7551     0.7830     0.8112     0.8396 
              0.8682     0.8974     0.9291     0.9632     1.0000 
  Hrad:  
              0.0199     0.0397     0.0596     0.0795     0.0993 
              0.1192     0.1390     0.1589     0.1788     0.1986 
              0.2185     0.2384     0.2582     0.2781     0.2979 
              0.3178     0.3377     0.3575     0.3774     0.3973 
              0.4171     0.4370     0.4620     0.4949     0.5274 
              0.5594     0.5910     0.6221     0.6528     0.6831 
              0.7129     0.7425     0.7716     0.8004     0.8289 
              0.8570     0.8848     0.9124     0.9396     0.9665 
              0.9932     1.0196     1.0458     1.0717     1.0974 
              1.1228     1.1046     1.0618     1.0275     1.0000 
  Width: 
              0.0269     0.0538     0.0806     0.1075     0.1344 
              0.1613     0.1882     0.2151     0.2419     0.2688 
              0.2957     0.3226     0.3495     0.3764     0.4032 
              0.4301     0.4570     0.4839     0.5108     0.5377 
              0.5645     0.5914     0.6105     0.6168     0.6231 
              0.6294     0.6357     0.6420     0.6483     0.6546 
              0.6609     0.6672     0.6735     0.6798     0.6862 
              0.6925     0.6988     0.7051     0.7114     0.7177 
              0.7240     0.7303     0.7366     0.7429     0.7492 
              0.7555     0.7969     0.8646     0.9323     1.0000 

  Transect 16
  Area:  
              0.0102     0.0208     0.0318     0.0432     0.0550 
              0.0672     0.0798     0.0928     0.1062     0.1200 
              0.1342     0.1488     0.1638     0.1792     0.1950 
              0.2112     0.2278     0.2448     0.2622     0.2800 
              0.2982     0.3168     0.3358     0.3552     0.3750 
              0.3952     0.4158     0.4368     0.4582     0.4800 
              0.5022     0.5248     0.5478     0.5712     0.5950 
              0.6192     0.6438     0.6688     0.6942     0.7200 
              0.7462     0.7728     0.7998     0.8272     0.8550 
              0.8832     0.9118     0.9408     0.9702     1.0000 
  Hrad:  
              0.0583     0.1135     0.1659     0.2160     0.2640 
              0.3102     0.3547     0.3977     0.4394     0.4800 
              0.5195     0.5580     0.5956     0.6325     0.6686 
              0.7040     0.7388     0.7731     0.8068     0.8400 
              0.8728     0.9051     0.9371     0.9687     1.0000 
              1.0310     1.0616     1.0920     1.1221     1.1520 
              1.1816     1.2111     1.2403     1.2693     1.2982 
              1.3269     1.3554     1.3837     1.4119     1.4400 
              1.4679     1.4957     1.5234     1.5510     1.5785 
              1.6058     1.6331     1.6602     1.6873     1.0000 
  Width: 
              0.1891     0.1964     0.2036     0.2109     0.2182 
              0.2255     0.2327     0.2400     0.2473     0.2545 
              0.2618     0.2691     0.2764     0.2836     0.2909 
              0.2982     0.3055     0.3127     0.3200     0.3273 
              0.3345     0.3418     0.3491     0.3564     0.3636 
              0.3709     0.3782     0.3855     0.3927     0.4000 
              0.4073     0.4145     0.4218     0.4291     0.4364 
              0.4436     0.4509     0.4582     0.4655     0.4727 
              0.4800     0.4873     0.4945     0.5018     0.5091 
              0.5164     0.5236     0.5309     0.5382     1.0000 
  
  
  ****************
  Analysis Options
  ****************
  Flow Units ............... CFS
  Process Models:
    Rainfall/Runoff ........ YES
    RDII ................... NO
    Snowmelt ............... NO
    Groundwater ............ NO
    Flow Routing ........... YES
    Ponding Allowed ........ NO
    Water Quality .......... NO
  Infiltration Method ...... HORTON
  Flow Routing Method ...... DYNWAVE
  Surcharge Method ......... EXTRAN
  Starting Date ............ 11/15/2006 00:00:00
  Ending Date .............. 11/17/2006 00:00:00
  Antecedent Dry Days ...... 0.0
  Report Time Step ......... 08:20:00
  Wet Time Step ............ 00:05:00
  Dry Time Step ............ 23:00:00
  Routing Time Step ........ 60.00 sec
  Variable Time Step ....... YES
  Maximum Trials ........... 8
  Number of Threads ........ 1
  Head Tolerance ........... 0.005000 ft
  
  
  **************************        Volume         Depth
  Runoff Quantity Continuity     acre-feet        inches
  **************************     ---------       -------
  Total Precipitation ......       105.752         2.500
  Evaporation Loss .........         0.000         0.000
  Infiltration Loss ........       105.752         2.500
  Surface Runoff ...........         0.000         0.000
  Final Storage ............         0.000         0.000
  Continuity Error (%) .....         0.000
  
  
  **************************        Volume        Volume
  Flow Routing Continuity        acre-feet      10^6 gal
  **************************     ---------     ---------
  Dry Weather Inflow .......         1.904         0.620
  Wet Weather Inflow .......         0.000         0.000
  Groundwater Inflow .......         0.000         0.000
  RDII Inflow ..............         0.000         0.000
  External Inflow ..........         0.000         0.000
  External Outflow .........         3.577         1.165
  Flooding Loss ............         0.000         0.000
  Evaporation Loss .........         0.036         0.012
  Exfiltration Loss ........         0.000         0.000
  Initial Stored Volume ....         5.083         1.657
  Final Stored Volume ......         3.431         1.118
  Continuity Error (%) .....        -0.803
  
  
  *************************
  Highest Continuity Errors
  *************************
  Node Node205 (2.22%)
  Node Node107 (-1.73%)
  Node Node99 (1.45%)
  
  
  ***************************
  Time-Step Critical Elements
  ***************************
  Link Link106 (99.99%)
  
  
  ********************************
  Highest Flow Instability Indexes
  ********************************
  All links are stable.
  
  
  *********************************
  Most Frequent Nonconverging Nodes
  *********************************
  Convergence obtained at all time steps.
  
  
  *************************
  Routing Time Step Summary
  *************************
  Minimum Time Step           :     1.69 sec
  Average Time Step           :     1.79 sec
  Maximum Time Step           :    14.52 sec
  % of Time in Steady State   :     0.00
  Average Iterations per Step :     2.00
  % of Steps Not Converging   :     0.00
  Time Step Frequencies       :
     60.000 - 23.031 sec      :     0.00 %
     23.031 -  8.841 sec      :     0.00 %
      8.841 -  3.393 sec      :     0.03 %
      3.393 -  1.303 sec      :    99.97 %
      1.303 -  0.500 sec      :     0.00 %
  
  
  ***************************
  Subcatchment Runoff Summary
  ***************************
  
  ------------------------------------------------------------------------------------------------------------------------------
                            Total      Total      Total      Total     Imperv       Perv      Total       Total     Peak  Runoff
                           Precip      Runon       Evap      Infil     Runoff     Runoff     Runoff      Runoff   Runoff   Coeff
  Subcatchment                 in         in         in         in         in         in         in    10^6 gal      CFS
  ------------------------------------------------------------------------------------------------------------------------------
  Basin741                   2.50       0.00       0.00       2.50       0.00       0.00       0.00        0.00     0.00   0.000
  Basin23.2                  2.50       0.00       0.00       2.50       0.00       0.00       0.00        0.00     0.00   0.000
  Basin23.1                  2.50       0.00       0.00       2.50       0.00       0.00       0.00        0.00     0.00   0.000
  Basin831                   2.50       0.00       0.00       2.50       0.00       0.00       0.00        0.00     0.00   0.000
  Basin891                   2.50       0.00       0.00       2.50       0.00       0.00       0.00        0.00     0.00   0.000
  Basin90.1                  2.50       0.00       0.00       2.50       0.00       0.00       0.00        0.00     0.00   0.000
  Basin90.2                  2.50       0.00       0.00       2.50       0.00       0.00       0.00        0.00     0.00   0.000
  Basin841                   2.50       0.00       0.00       2.50       0.00       0.00       0.00        0.00     0.00   0.000
  Basin241                   2.50       0.00       0.00       2.50       0.00       0.00       0.00        0.00     0.00   0.000
  Basin281                   2.50       0.00       0.00       2.50       0.00       0.00       0.00        0.00     0.00   0.000
  Basin271                   2.50       0.00       0.00       2.50       0.00       0.00       0.00        0.00     0.00   0.000
  Basin261                   2.50       0.00       0.00       2.50       0.00       0.00       0.00        0.00     0.00   0.000
  Basin251                   2.50       0.00       0.00       2.50       0.00       0.00       0.00        0.00     0.00   0.000
  Basin211                   2.50       0.00       0.00       2.50       0.00       0.00       0.00        0.00     0.00   0.000
  Basin221                   2.50       0.00       0.00       2.50       0.00       0.00       0.00        0.00     0.00   0.000
  
  
  ******************
  Node Depth Summary
  ******************
  
  ---------------------------------------------------------------------------------
                                 Average  Maximum  Maximum  Time of Max    Reported
                                   Depth    Depth      HGL   Occurrence   Max Depth
  Node                 Type         Feet     Feet     Feet  days hr:min        Feet
  ---------------------------------------------------------------------------------
  Basin21              JUNCTION     0.24     0.25   441.25     0  10:51        0.25
  Basin22              JUNCTION     0.25     0.26   440.26     0  10:57        0.26
  nBasin23.1           JUNCTION     0.00     0.00   448.07     0  00:00        0.00
  nBasin23.2           JUNCTION     0.00     0.00   453.69     0  00:00        0.00
  Basin24              JUNCTION     0.42     0.43   459.27     0  01:19        0.43
  Basin25              JUNCTION     0.00     0.00   478.00     0  00:00        0.00
  Basin26              JUNCTION     0.00     0.00   475.00     0  00:00        0.00
  Basin27              JUNCTION     0.00     0.00   491.86     0  00:00        0.00
  Basin28              JUNCTION     0.00     0.00   511.00     0  00:00        0.00
  Basin74              JUNCTION     0.00     0.00   492.00     0  00:00        0.00
  Basin83              JUNCTION     0.00     0.00   467.65     0  00:00        0.00
  Basin84              JUNCTION     0.19     0.19   468.06     0  03:46        0.19
  Basin89              JUNCTION     1.40     1.40   481.40     0  02:48        1.40
  nBasin90.1           JUNCTION     0.21     0.21   477.43     0  03:08        0.21
  nBasin90.2           JUNCTION     0.55     0.56   473.46     0  02:23        0.56
  N177                 JUNCTION     0.00     0.00   450.00     0  00:00        0.00
  N179                 JUNCTION     0.00     0.00   446.48     0  00:00        0.00
  N180                 JUNCTION     0.00     0.00   445.98     0  00:00        0.00
  N183                 JUNCTION     0.15     0.15   461.73     0  03:46        0.15
  N187                 JUNCTION     0.00     0.00   474.69     0  00:00        0.00
  N404                 JUNCTION     0.60     0.74   440.03     0  00:09        0.61
  N447.1               JUNCTION     0.21     0.21   477.85     0  02:48        0.21
  N477                 JUNCTION     0.00     0.00   474.00     0  00:00        0.00
  Node105              JUNCTION     0.26     0.40   440.03     0  00:08        0.27
  Node168              JUNCTION     0.00     0.00   500.00     0  00:00        0.00
  Node171              JUNCTION     0.00     0.00   494.00     0  00:00        0.00
  Node172              JUNCTION     0.00     0.00   493.97     0  00:00        0.00
  Node174              JUNCTION     0.00     0.00   489.81     0  00:00        0.00
  Node175              JUNCTION     0.00     0.00   490.99     0  00:00        0.00
  Node205              JUNCTION     2.28     3.58   440.58     0  00:02        2.27
  Node232              JUNCTION     0.00     0.00   445.96     0  00:00        0.00
  Node233              JUNCTION     0.00     0.00   445.20     0  00:00        0.00
  Node256              JUNCTION     0.00     0.00   445.00     0  00:00        0.00
  Node385              JUNCTION     0.00     0.00   462.18     0  00:00        0.00
  Node386              JUNCTION     0.20     0.20   473.18     0  03:07        0.20
  Node388              JUNCTION     0.19     0.21   459.47     0  00:15        0.19
  Node92               JUNCTION     0.00     0.00   468.55     0  00:00        0.00
  Node93               JUNCTION     0.00     0.00   463.69     0  00:00        0.00
  Node94               JUNCTION     0.25     0.27   459.00     0  00:42        0.25
  Node95               JUNCTION     0.29     0.33   458.79     0  00:57        0.30
  Node96               JUNCTION     0.31     0.35   458.51     0  01:17        0.31
  Node99               JUNCTION     0.61     0.63   443.63     0  10:51        0.63
  Node108              OUTFALL      0.00     0.00   435.00     0  00:00        0.00
  Node116              STORAGE      0.00     0.00   464.00     0  00:00        0.00
  Node107              STORAGE      3.28     5.00   441.00     0  00:00        3.27
  Node165              STORAGE      0.00     0.00   510.00     0  00:00        0.00
  Node166              STORAGE      0.00     0.00   505.63     0  00:00        0.00
  Node167              STORAGE      0.00     0.00   502.89     0  00:00        0.00
  Node200              STORAGE      0.00     0.00   445.00     0  00:00        0.00
  
  
  *******************
  Node Inflow Summary
  *******************
  
  -------------------------------------------------------------------------------------------------
                                  Maximum  Maximum                  Lateral       Total        Flow
                                  Lateral    Total  Time of Max      Inflow      Inflow     Balance
                                   Inflow   Inflow   Occurrence      Volume      Volume       Error
  Node                 Type           CFS      CFS  days hr:min    10^6 gal    10^6 gal     Percent
  -------------------------------------------------------------------------------------------------
  Basin21              JUNCTION      0.00     0.47     0  10:51           0       0.591       0.295
  Basin22              JUNCTION      0.00     0.47     0  10:51           0       0.588       0.179
  nBasin23.1           JUNCTION      0.00     0.00     0  00:00           0           0       0.000 gal
  nBasin23.2           JUNCTION      0.00     0.00     0  00:00           0           0       0.000 gal
  Basin24              JUNCTION      0.00     0.48     0  02:23           0       0.617       0.513
  Basin25              JUNCTION      0.00     0.00     0  00:00           0           0       0.000 gal
  Basin26              JUNCTION      0.00     0.00     0  00:00           0           0       0.000 gal
  Basin27              JUNCTION      0.00     0.00     0  00:00           0           0       0.000 gal
  Basin28              JUNCTION      0.00     0.00     0  00:00           0           0       0.000 gal
  Basin74              JUNCTION      0.00     0.00     0  00:00           0           0       0.000 gal
  Basin83              JUNCTION      0.00     0.00     0  00:00           0           0       0.000 gal
  Basin84              JUNCTION      0.00     0.48     0  03:07           0       0.617       0.048
  Basin89              JUNCTION      0.48     0.48     0  00:00        0.62        0.62       0.257
  nBasin90.1           JUNCTION      0.00     0.48     0  02:48           0       0.618       0.027
  nBasin90.2           JUNCTION      0.00     0.48     0  03:04           0       0.618       0.072
  N177                 JUNCTION      0.00     0.00     0  00:00           0           0       0.000 gal
  N179                 JUNCTION      0.00     0.00     0  00:00           0           0       0.000 gal
  N180                 JUNCTION      0.00     0.00     0  00:00           0           0       0.000 gal
  N183                 JUNCTION      0.00     0.48     0  03:32           0       0.617       0.004
  N187                 JUNCTION      0.00     0.00     0  00:00           0           0       0.000 gal
  N404                 JUNCTION      0.00     3.69     0  00:03           0       0.593       0.709
  N447.1               JUNCTION      0.00     0.48     0  02:49           0       0.619       0.025
  N477                 JUNCTION      0.00     0.00     0  00:00           0           0       0.000 gal
  Node105              JUNCTION      0.00     4.79     0  00:02           0       0.597       0.335
  Node168              JUNCTION      0.00     0.00     0  00:00           0           0       0.000 gal
  Node171              JUNCTION      0.00     0.00     0  00:00           0           0       0.000 gal
  Node172              JUNCTION      0.00     0.00     0  00:00           0           0       0.000 gal
  Node174              JUNCTION      0.00     0.00     0  00:00           0           0       0.000 gal
  Node175              JUNCTION      0.00     0.00     0  00:00           0           0       0.000 gal
  Node205              JUNCTION      0.00    27.54     0  00:01           0       0.616       2.273
  Node232              JUNCTION      0.00     0.00     0  00:00           0           0       0.000 gal
  Node233              JUNCTION      0.00     0.00     0  00:00           0           0       0.000 gal
  Node256              JUNCTION      0.00     0.00     0  00:00           0           0       0.000 gal
  Node385              JUNCTION      0.00     0.00     0  00:00           0           0       0.000 gal
  Node386              JUNCTION      0.00     0.48     0  03:16           0       0.618       0.052
  Node388              JUNCTION      0.00     0.48     0  02:20           0       0.617       0.007
  Node92               JUNCTION      0.00     0.00     0  00:00           0           0       0.000 gal
  Node93               JUNCTION      0.00     0.00     0  00:00           0           0       0.000 gal
  Node94               JUNCTION      0.00     0.48     0  01:24           0       0.613       0.176
  Node95               JUNCTION      0.00     0.51     0  00:45           0       0.611       0.395
  Node96               JUNCTION      0.00     0.53     0  01:05           0       0.608       0.648
  Node99               JUNCTION      0.00     0.61     0  01:21           0       0.602       1.467
  Node108              OUTFALL       0.00   178.22     0  00:00           0        1.17       0.000
  Node116              STORAGE       0.00     0.00     0  00:00           0           0       0.000 gal
  Node107              STORAGE       0.00     3.50     0  00:03           0        2.22      -1.705
  Node165              STORAGE       0.00     0.00     0  00:00           0           0       0.000 gal
  Node166              STORAGE       0.00     0.00     0  00:00           0           0       0.000 gal
  Node167              STORAGE       0.00     0.00     0  00:00           0           0       0.000 gal
  Node200              STORAGE       0.00     0.00     0  00:00           0           0       0.000 gal
  
  
  **********************
  Node Surcharge Summary
  **********************
  
  No nodes were surcharged.
  
  
  *********************
  Node Flooding Summary
  *********************
  
  No nodes were flooded.
  
  
  **********************
  Storage Volume Summary
  **********************
  
  ------------------------------------------------------------------------------------------------
                         Average    Avg   Evap  Exfil     Maximum    Max    Time of Max    Maximum
                          Volume   Pcnt   Pcnt   Pcnt      Volume   Pcnt     Occurrence    Outflow
  Storage Unit          1000 ftł   Full   Loss   Loss    1000 ftł   Full    days hr:min        CFS
  ------------------------------------------------------------------------------------------------
  Node116                  0.000    0.0    0.0    0.0       0.000    0.0       0  00:00       0.00
  Node107                142.771   23.4    0.0    0.0     217.797   35.7       0  00:00     202.66
  Node165                  0.000    0.0    0.0    0.0       0.000    0.0       0  00:00       0.00
  Node166                  0.000    0.0    0.0    0.0       0.000    0.0       0  00:00       0.00
  Node167                  0.000    0.0    0.0    0.0       0.000    0.0       0  00:00       0.00
  Node200                  0.000    0.0    0.0    0.0       0.000    0.0       0  00:00       0.00
  
  
  ***********************
  Outfall Loading Summary
  ***********************
  
  -----------------------------------------------------------
                         Flow       Avg       Max       Total
                         Freq      Flow      Flow      Volume
  Outfall Node           Pcnt       CFS       CFS    10^6 gal
  -----------------------------------------------------------
  Node108              100.00      0.77    178.22       1.165
  -----------------------------------------------------------
  System               100.00      0.77    178.22       1.165
  
  
  ********************
  Link Flow Summary
  ********************
  
  -----------------------------------------------------------------------------
                                 Maximum  Time of Max   Maximum    Max/    Max/
                                  |Flow|   Occurrence   |Veloc|    Full    Full
  Link                 Type          CFS  days hr:min    ft/sec    Flow   Depth
  -----------------------------------------------------------------------------
  L172                 CONDUIT      0.00     0  00:00      0.00    0.00    0.00
  L173                 CONDUIT      0.00     0  00:00      0.00    0.00    0.00
  L180                 CONDUIT      0.00     0  00:00      0.00    0.00    0.00
  Link355              CONDUIT      0.00     0  00:00      0.00    0.00    0.00
  Link360              CONDUIT      0.48     0  02:20      3.85    0.01    0.08
  Link361              CONDUIT      0.00     0  00:00      0.00    0.00    0.00
  Link106              CONDUIT      0.48     0  02:48      3.96    0.10    0.21
  Link107              CHANNEL      0.48     0  02:49      1.04    0.00    0.16
  Link108              CONDUIT      0.48     0  03:04      2.05    0.06    0.27
  Link109              CONDUIT      0.48     0  03:16      1.28    0.06    0.26
  Link110              CONDUIT      0.48     0  03:07      3.39    0.04    0.13
  Link111              CONDUIT      0.48     0  03:32      3.66    0.03    0.13
  Link112              CONDUIT      0.48     0  02:23      3.38    0.01    0.12
  Link113              CONDUIT      0.00     0  00:00      0.00    0.00    0.00
  Link114              CONDUIT      0.00     0  00:00      0.00    0.00    0.00
  Link115              CONDUIT      0.00     0  00:00      0.00    0.00    0.00
  Link116              CHANNEL      0.48     0  01:24      0.39    0.17    0.10
  Link117              CHANNEL      0.51     0  00:45      0.46    0.02    0.10
  Link118              CHANNEL      0.53     0  01:05      0.41    0.02    0.11
  Link123              CHANNEL      0.00     0  00:00      0.00    0.00    0.04
  Link129              CHANNEL      4.79     0  00:02      1.03    0.04    0.24
  Link130              CHANNEL     27.54     0  00:01      3.38    0.28    0.50
  Link131              CHANNEL    178.22     0  00:00      5.81    0.07    0.15
  Link192              CHANNEL      0.00     0  00:00      0.00    0.00    0.00
  Link193              CONDUIT      0.00     0  00:00      0.00    0.00    0.00
  Link194              CONDUIT      0.00     0  00:00      0.00    0.00    0.00
  Link198              CHANNEL      0.00     0  00:00      0.00    0.00    0.00
  Link199              CONDUIT      0.00     0  00:00      0.00    0.00    0.00
  Link200              CONDUIT      0.00     0  00:00      0.00    0.00    0.00
  Link201              CONDUIT      0.00     0  00:00      0.00    0.00    0.00
  Link202              CHANNEL      0.00     0  00:00      0.00    0.00    0.00
  Link203              CONDUIT      0.00     0  00:00      0.00    0.00    0.00
  Link204              CHANNEL      0.00     0  00:00      0.00    0.00    0.00
  Link205              CONDUIT      0.00     0  00:00      0.00    0.00    0.00
  Link207              CHANNEL      0.00     0  00:00      0.00    0.00    0.00
  Link237              CONDUIT      0.00     0  00:00      0.00    0.00    0.00
  Link238              CONDUIT      0.00     0  00:00      0.00    0.00    0.00
  Link240              CHANNEL      0.61     0  01:21      1.49    0.00    0.11
  Link246              CHANNEL      0.47     0  10:51      0.59    0.00    0.10
  Link248              CONDUIT      0.47     0  10:51      1.39    0.01    0.06
  Link249              CONDUIT      0.47     0  10:57      1.09    0.01    0.08
  Link329              CONDUIT      0.00     0  00:00      0.00    0.00    0.00
  Link330              CONDUIT      0.00     0  00:00      0.00    0.00    0.00
  Link332              CONDUIT      0.00     0  00:00      0.00    0.00    0.00
  Link364              CONDUIT      0.00     0  00:00      0.00    0.00    0.00
  Link368              CONDUIT      0.00     0  00:00      0.00    0.00    0.00
  1458.1               CONDUIT      0.00     0  00:00      0.00    0.00    0.00
  ditch                CHANNEL      0.00     0  00:00      0.00    0.00    0.00
  1544.1               CONDUIT      0.00     0  00:00      0.00    0.00    0.10
  1544.2               CONDUIT      3.69     0  00:03      2.17    0.02    0.12
  WEIR1atNode200-Node256 WEIR         0.00     0  00:00                      0.00
  WEIR2atNode200-Node99 WEIR         0.00     0  00:00                      0.00
  
  
  ***************************
  Flow Classification Summary
  ***************************
  
  -------------------------------------------------------------------------------------
                      Adjusted    ---------- Fraction of Time in Flow Class ---------- 
                       /Actual         Up    Down  Sub   Sup   Up    Down  Norm  Inlet 
  Conduit               Length    Dry  Dry   Dry   Crit  Crit  Crit  Crit  Ltd   Ctrl  
  -------------------------------------------------------------------------------------
  L172                    1.00   1.00  0.00  0.00  0.00  0.00  0.00  0.00  0.00  0.00
  L173                    1.00   1.00  0.00  0.00  0.00  0.00  0.00  0.00  0.00  0.00
  L180                    1.00   1.00  0.00  0.00  0.00  0.00  0.00  0.00  0.00  0.00
  Link355                 1.00   1.00  0.00  0.00  0.00  0.00  0.00  0.00  0.00  0.00
  Link360                 1.00   0.00  0.00  0.00  0.00  1.00  0.00  0.00  1.00  0.00
  Link361                 1.00   1.00  0.00  0.00  0.00  0.00  0.00  0.00  0.00  0.00
  Link106                 1.00   0.00  0.00  0.00  0.00  0.00  0.00  1.00  0.00  0.00
  Link107                 1.00   0.00  0.00  0.00  1.00  0.00  0.00  0.00  0.00  0.00
  Link108                 1.00   0.00  0.00  0.00  1.00  0.00  0.00  0.00  1.00  0.00
  Link109                 1.00   0.00  0.00  0.00  0.00  0.00  1.00  0.00  0.00  0.00
  Link110                 1.00   0.00  0.00  0.00  0.00  0.00  0.00  1.00  0.00  0.00
  Link111                 1.00   0.00  0.00  0.00  0.00  0.00  0.00  1.00  0.00  0.00
  Link112                 1.00   0.00  0.00  0.00  0.99  0.01  0.00  0.00  0.99  0.00
  Link113                 1.00   1.00  0.00  0.00  0.00  0.00  0.00  0.00  0.00  0.00
  Link114                 1.00   1.00  0.00  0.00  0.00  0.00  0.00  0.00  0.00  0.00
  Link115                 1.00   1.00  0.00  0.00  0.00  0.00  0.00  0.00  0.00  0.00
  Link116                 1.00   0.00  0.00  0.00  0.99  0.00  0.01  0.00  0.00  0.00
  Link117                 1.00   0.00  0.00  0.00  1.00  0.00  0.00  0.00  0.98  0.00
  Link118                 1.00   0.01  0.00  0.00  0.99  0.00  0.00  0.00  0.98  0.00
  Link123                 1.00   0.01  0.99  0.00  0.00  0.00  0.00  0.00  0.00  0.00
  Link129                 1.00   0.00  0.00  0.00  1.00  0.00  0.00  0.00  1.00  0.00
  Link130                 1.00   0.00  0.00  0.00  1.00  0.00  0.00  0.00  0.00  0.00
  Link131                 1.00   0.00  0.00  0.00  0.00  0.00  0.00  1.00  0.00  0.00
  Link192                 1.00   1.00  0.00  0.00  0.00  0.00  0.00  0.00  0.00  0.00
  Link193                 1.00   1.00  0.00  0.00  0.00  0.00  0.00  0.00  0.00  0.00
  Link194                 1.00   1.00  0.00  0.00  0.00  0.00  0.00  0.00  0.00  0.00
  Link198                 1.00   1.00  0.00  0.00  0.00  0.00  0.00  0.00  0.00  0.00
  Link199                 1.00   1.00  0.00  0.00  0.00  0.00  0.00  0.00  0.00  0.00
  Link200                 1.00   1.00  0.00  0.00  0.00  0.00  0.00  0.00  0.00  0.00
  Link201                 1.00   1.00  0.00  0.00  0.00  0.00  0.00  0.00  0.00  0.00
  Link202                 1.00   1.00  0.00  0.00  0.00  0.00  0.00  0.00  0.00  0.00
  Link203                 1.00   1.00  0.00  0.00  0.00  0.00  0.00  0.00  0.00  0.00
  Link204                 1.00   1.00  0.00  0.00  0.00  0.00  0.00  0.00  0.00  0.00
  Link205                 1.00   1.00  0.00  0.00  0.00  0.00  0.00  0.00  0.00  0.00
  Link207                 1.00   1.00  0.00  0.00  0.00  0.00  0.00  0.00  0.00  0.00
  Link237                 1.00   1.00  0.00  0.00  0.00  0.00  0.00  0.00  0.00  0.00
  Link238                 1.00   1.00  0.00  0.00  0.00  0.00  0.00  0.00  0.00  0.00
  Link240                 1.00   0.01  0.00  0.00  0.98  0.01  0.00  0.00  0.97  0.00
  Link246                 1.00   0.02  0.00  0.00  0.98  0.00  0.00  0.00  0.00  0.00
  Link248                 1.00   0.00  0.02  0.00  0.98  0.00  0.00  0.00  0.96  0.00
  Link249                 1.00   0.00  0.00  0.00  1.00  0.00  0.00  0.00  1.00  0.00
  Link329                 1.00   1.00  0.00  0.00  0.00  0.00  0.00  0.00  0.00  0.00
  Link330                 1.00   1.00  0.00  0.00  0.00  0.00  0.00  0.00  0.00  0.00
  Link332                 1.00   1.00  0.00  0.00  0.00  0.00  0.00  0.00  0.00  0.00
  Link364                 1.00   1.00  0.00  0.00  0.00  0.00  0.00  0.00  0.00  0.00
  Link368                 1.00   1.00  0.00  0.00  0.00  0.00  0.00  0.00  0.00  0.00
  1458.1                  1.00   1.00  0.00  0.00  0.00  0.00  0.00  0.00  0.00  0.00
  ditch                   1.00   1.00  0.00  0.00  0.00  0.00  0.00  0.00  0.00  0.00
  1544.1                  1.00   0.00  1.00  0.00  0.00  0.00  0.00  0.00  0.00  0.00
  1544.2                  1.00   0.00  0.00  0.00  1.00  0.00  0.00  0.00  0.00  0.00
  
  
  *************************
  Conduit Surcharge Summary
  *************************
  
  No conduits were surcharged.
  

  Analysis begun on:  Fri Mar  6 15:02:30 2026
  Analysis ended on:  Fri Mar  6 15:02:32 2026
  Total elapsed time: 00:00:02