
  EPA STORM WATER MANAGEMENT MODEL - VERSION 5.2 (Build 5.2.4)
  ------------------------------------------------------------

                 Extran with surcharge in 2 foot circular conduits 
                 SWMM CRADA Example 1 
  
  ****************
  Analysis Options
  ****************
  Flow Units ............... CFS
  Process Models:
    Rainfall/Runoff ........ NO
    RDII ................... NO
    Snowmelt ............... NO
    Groundwater ............ NO
    Flow Routing ........... YES
    Ponding Allowed ........ NO
    Water Quality .......... NO
  Flow Routing Method ...... DYNWAVE
  Surcharge Method ......... EXTRAN
  Starting Date ............ 02/22/2002 00:00:00
  Ending Date .............. 02/22/2002 01:00:00
  Antecedent Dry Days ...... 0.0
  Report Time Step ......... 00:00:01
  Routing Time Step ........ 1.00 sec
  Variable Time Step ....... YES
  Maximum Trials ........... 8
  Number of Threads ........ 1
  Head Tolerance ........... 0.005000 ft
  
  
  **************************        Volume        Volume
  Flow Routing Continuity        acre-feet      10^6 gal
  **************************     ---------     ---------
  Dry Weather Inflow .......         0.000         0.000
  Wet Weather Inflow .......         0.000         0.000
  Groundwater Inflow .......         0.000         0.000
  RDII Inflow ..............         0.000         0.000
  External Inflow ..........         1.550         0.505
  External Outflow .........         1.550         0.505
  Flooding Loss ............         0.000         0.000
  Evaporation Loss .........         0.000         0.000
  Exfiltration Loss ........         0.000         0.000
  Initial Stored Volume ....         0.000         0.000
  Final Stored Volume ......         0.000         0.000
  Continuity Error (%) .....         0.000
  
  
  ***************************
  Time-Step Critical Elements
  ***************************
  Link outlet (39.04%)
  Link pipe1 (14.76%)
  Link pipe9 (3.35%)
  Link pipe8 (2.28%)
  Link pipe7 (1.37%)
  
  
  ********************************
  Highest Flow Instability Indexes
  ********************************
  Link outlet (2)
  Link pipe9 (2)
  Link pipe8 (1)
  Link pipe7 (1)
  Link pipe6 (1)
  
  
  *********************************
  Most Frequent Nonconverging Nodes
  *********************************
  Node mid3 (0.02%)
  Node Outlet (0.02%)
  
  
  *************************
  Routing Time Step Summary
  *************************
  Minimum Time Step           :     0.50 sec
  Average Time Step           :     0.71 sec
  Maximum Time Step           :     1.00 sec
  % of Time in Steady State   :     0.00
  Average Iterations per Step :     2.01
  % of Steps Not Converging   :     0.02
  Time Step Frequencies       :
      1.000 -  0.871 sec      :    36.93 %
      0.871 -  0.758 sec      :     2.40 %
      0.758 -  0.660 sec      :     4.36 %
      0.660 -  0.574 sec      :     7.85 %
      0.574 -  0.500 sec      :    48.46 %
  
  
  ******************
  Node Depth Summary
  ******************
  
  ---------------------------------------------------------------------------------
                                 Average  Maximum  Maximum  Time of Max    Reported
                                   Depth    Depth      HGL   Occurrence   Max Depth
  Node                 Type         Feet     Feet     Feet  days hr:min        Feet
  ---------------------------------------------------------------------------------
  Inflow               JUNCTION     1.46     4.52     5.52     0  00:15        4.52
  mid1                 JUNCTION     1.43     4.27     5.17     0  00:15        4.27
  mid2                 JUNCTION     1.40     4.02     4.82     0  00:15        4.02
  mid3                 JUNCTION     1.37     3.77     4.47     0  00:15        3.77
  mid4                 JUNCTION     1.34     3.52     4.12     0  00:15        3.52
  mid5                 JUNCTION     1.31     3.27     3.77     0  00:15        3.27
  mid6                 JUNCTION     1.28     3.02     3.42     0  00:15        3.02
  mid7                 JUNCTION     1.25     2.76     3.06     0  00:15        2.76
  mid8                 JUNCTION     1.22     2.51     2.71     0  00:15        2.51
  mid9                 JUNCTION     1.19     2.26     2.36     0  00:15        2.26
  Outlet               OUTFALL      1.16     2.00     2.00     0  00:10        2.00
  
  
  *******************
  Node Inflow Summary
  *******************
  
  -------------------------------------------------------------------------------------------------
                                  Maximum  Maximum                  Lateral       Total        Flow
                                  Lateral    Total  Time of Max      Inflow      Inflow     Balance
                                   Inflow   Inflow   Occurrence      Volume      Volume       Error
  Node                 Type           CFS      CFS  days hr:min    10^6 gal    10^6 gal     Percent
  -------------------------------------------------------------------------------------------------
  Inflow               JUNCTION     49.99    49.99     0  00:15       0.505       0.505       0.003
  mid1                 JUNCTION      0.00    49.97     0  00:15           0       0.505      -0.001
  mid2                 JUNCTION      0.00    49.95     0  00:15           0       0.505      -0.001
  mid3                 JUNCTION      0.00    49.95     0  00:15           0       0.505      -0.001
  mid4                 JUNCTION      0.00    49.95     0  00:15           0       0.505      -0.000
  mid5                 JUNCTION      0.00    49.97     0  00:15           0       0.505      -0.000
  mid6                 JUNCTION      0.00    49.99     0  00:15           0       0.505      -0.000
  mid7                 JUNCTION      0.00    50.03     0  00:15           0       0.505      -0.000
  mid8                 JUNCTION      0.00    50.06     0  00:15           0       0.505       0.000
  mid9                 JUNCTION      0.00    50.09     0  00:15           0       0.505      -0.001
  Outlet               OUTFALL       0.00    50.11     0  00:15           0       0.505       0.000
  
  
  **********************
  Node Surcharge Summary
  **********************
  
  Surcharging occurs when water rises above the top of the highest conduit.
  ---------------------------------------------------------------------
                                               Max. Height   Min. Depth
                                   Hours       Above Crown    Below Rim
  Node                 Type      Surcharged           Feet         Feet
  ---------------------------------------------------------------------
  Inflow               JUNCTION        0.30          2.518        4.482
  mid1                 JUNCTION        0.30          2.269        4.831
  mid2                 JUNCTION        0.30          2.020        5.180
  mid3                 JUNCTION        0.29          1.770        5.530
  mid4                 JUNCTION        0.29          1.520        5.880
  mid5                 JUNCTION        0.28          1.269        6.231
  mid6                 JUNCTION        0.28          1.017        6.583
  mid7                 JUNCTION        0.27          0.764        6.936
  mid8                 JUNCTION        0.25          0.510        7.290
  mid9                 JUNCTION        0.23          0.255        7.645
  
  
  *********************
  Node Flooding Summary
  *********************
  
  No nodes were flooded.
  
  
  ***********************
  Outfall Loading Summary
  ***********************
  
  -----------------------------------------------------------
                         Flow       Avg       Max       Total
                         Freq      Flow      Flow      Volume
  Outfall Node           Pcnt       CFS       CFS    10^6 gal
  -----------------------------------------------------------
  Outlet                95.76     20.27     50.11       0.505
  -----------------------------------------------------------
  System                95.76     20.27     50.11       0.505
  
  
  ********************
  Link Flow Summary
  ********************
  
  -----------------------------------------------------------------------------
                                 Maximum  Time of Max   Maximum    Max/    Max/
                                  |Flow|   Occurrence   |Veloc|    Full    Full
  Link                 Type          CFS  days hr:min    ft/sec    Flow   Depth
  -----------------------------------------------------------------------------
  pipe1                CONDUIT     49.97     0  00:15     15.90    1.87    1.00
  pipe2                CONDUIT     49.95     0  00:15     15.90    1.87    1.00
  pipe3                CONDUIT     49.95     0  00:15     15.90    1.87    1.00
  pipe4                CONDUIT     49.95     0  00:15     15.90    1.87    1.00
  pipe5                CONDUIT     49.97     0  00:15     15.91    1.87    1.00
  pipe6                CONDUIT     49.99     0  00:15     15.91    1.87    1.00
  pipe7                CONDUIT     50.03     0  00:15     15.92    1.87    1.00
  pipe8                CONDUIT     50.06     0  00:15     15.94    1.87    1.00
  pipe9                CONDUIT     50.09     0  00:15     15.95    1.87    1.00
  outlet               CONDUIT     50.11     0  00:15     15.95    1.87    1.00
  
  
  ***************************
  Flow Classification Summary
  ***************************
  
  -------------------------------------------------------------------------------------
                      Adjusted    ---------- Fraction of Time in Flow Class ---------- 
                       /Actual         Up    Down  Sub   Sup   Up    Down  Norm  Inlet 
  Conduit               Length    Dry  Dry   Dry   Crit  Crit  Crit  Crit  Ltd   Ctrl  
  -------------------------------------------------------------------------------------
  pipe1                   1.00   0.00  0.00  0.00  0.57  0.43  0.00  0.00  0.51  0.00
  pipe2                   1.00   0.00  0.00  0.00  0.56  0.43  0.00  0.00  0.51  0.00
  pipe3                   1.00   0.00  0.00  0.00  0.56  0.44  0.00  0.00  0.51  0.00
  pipe4                   1.00   0.00  0.00  0.00  0.55  0.45  0.00  0.00  0.51  0.00
  pipe5                   1.00   0.01  0.00  0.00  0.54  0.46  0.00  0.00  0.51  0.00
  pipe6                   1.00   0.01  0.00  0.00  0.53  0.47  0.00  0.00  0.51  0.00
  pipe7                   1.00   0.01  0.00  0.00  0.52  0.48  0.00  0.00  0.51  0.00
  pipe8                   1.00   0.01  0.00  0.00  0.51  0.49  0.00  0.00  0.51  0.00
  pipe9                   1.00   0.01  0.00  0.00  0.51  0.48  0.00  0.00  0.51  0.00
  outlet                  1.00   0.01  0.00  0.00  0.31  0.68  0.00  0.00  0.28  0.00
  
  
  *************************
  Conduit Surcharge Summary
  *************************
  
  ----------------------------------------------------------------------------
                                                           Hours        Hours 
                         --------- Hours Full --------   Above Full   Capacity
  Conduit                Both Ends  Upstream  Dnstream   Normal Flow   Limited
  ----------------------------------------------------------------------------
  pipe1                       0.30      0.30      0.30      0.35         0.30
  pipe2                       0.30      0.30      0.30      0.35         0.30
  pipe3                       0.29      0.30      0.29      0.35         0.29
  pipe4                       0.29      0.29      0.29      0.35         0.29
  pipe5                       0.28      0.29      0.28      0.35         0.28
  pipe6                       0.28      0.28      0.28      0.35         0.28
  pipe7                       0.27      0.28      0.27      0.35         0.27
  pipe8                       0.25      0.27      0.25      0.35         0.25
  pipe9                       0.23      0.25      0.23      0.35         0.23
  outlet                      0.23      0.23      0.23      0.35         0.23
  

  Analysis begun on:  Fri Mar  6 15:02:32 2026
  Analysis ended on:  Fri Mar  6 15:02:32 2026
  Total elapsed time: < 1 sec