
  EPA STORM WATER MANAGEMENT MODEL - VERSION 5.2 (Build 5.2.4)
  ------------------------------------------------------------

  Scenario Run :  SCN-38G 
  SCENARIO philosopy: 
  DataSets are for full network (ie incls both NW and NE) 
  
  ****************
  Analysis Options
  ****************
  Flow Units ............... LPS
  Process Models:
    Rainfall/Runoff ........ YES
    RDII ................... YES
    Snowmelt ............... NO
    Groundwater ............ NO
    Flow Routing ........... YES
    Ponding Allowed ........ NO
    Water Quality .......... NO
  Flow Routing Method ...... DYNWAVE
  Surcharge Method ......... EXTRAN
  Starting Date ............ 08/22/2008 00:00:00
  Ending Date .............. 08/23/2008 23:00:00
  Antecedent Dry Days ...... 5.0
  Report Time Step ......... 00:01:00
  Routing Time Step ........ 1.00 sec
  Variable Time Step ....... YES
  Maximum Trials ........... 10
  Number of Threads ........ 1
  Head Tolerance ........... 0.001000 m
  
  
  **********************           Volume        Volume
  Rainfall Dependent I/I        hectare-m      10^6 ltr
  **********************        ---------     ---------
  Sewershed Rainfall ......        30.368       303.684
  RDII Produced ...........         1.755        17.553
  RDII Ratio ..............         0.058
  
  
  *********************
  Control Actions Taken
  *********************

  
  **************************        Volume        Volume
  Flow Routing Continuity        hectare-m      10^6 ltr
  **************************     ---------     ---------
  Dry Weather Inflow .......         0.463         4.634
  Wet Weather Inflow .......         0.000         0.000
  Groundwater Inflow .......         0.000         0.000
  RDII Inflow ..............         1.742        17.418
  External Inflow ..........         0.000         0.000
  External Outflow .........         2.055        20.551
  Flooding Loss ............         0.003         0.033
  Evaporation Loss .........         0.000         0.000
  Exfiltration Loss ........         0.000         0.000
  Initial Stored Volume ....         0.000         0.002
  Final Stored Volume ......         0.139         1.386
  Continuity Error (%) .....         0.381
  
  
  *************************
  Highest Continuity Errors
  *************************
  Node 1139 (97.18%)
  Node 6427 (-6.08%)
  Node 6669 (3.02%)
  Node 6868 (2.39%)
  Node F60355B (1.97%)
  
  
  ***************************
  Time-Step Critical Elements
  ***************************
  Link 12602R (23.15%)
  Link 60372 (16.58%)
  Link 9217 (1.80%)
  Link F99529 (1.47%)
  Link F60441 (1.46%)
  
  
  ********************************
  Highest Flow Instability Indexes
  ********************************
  Link 12269 (55)
  Link 9505 (51)
  Link 9506 (51)
  Link 13286 (45)
  Link F12441R (40)
  
  
  *********************************
  Most Frequent Nonconverging Nodes
  *********************************
  Node OFALL-16 (38.89%)
  Node F15 (15.51%)
  Node 6868 (8.66%)
  Node F60359B (7.04%)
  Node F60359A (7.04%)
  
  
  *************************
  Routing Time Step Summary
  *************************
  Minimum Time Step           :     0.06 sec
  Average Time Step           :     0.94 sec
  Maximum Time Step           :     1.00 sec
  % of Time in Steady State   :     0.00
  Average Iterations per Step :     6.96
  % of Steps Not Converging   :    38.89
  Time Step Frequencies       :
      1.000 -  0.251 sec      :    99.69 %
      0.251 -  0.063 sec      :     0.30 %
      0.063 -  0.016 sec      :     0.00 %
      0.016 -  0.004 sec      :     0.00 %
      0.004 -  0.001 sec      :     0.00 %
  
  
  ******************
  Node Depth Summary
  ******************
  
  ---------------------------------------------------------------------------------
                                 Average  Maximum  Maximum  Time of Max    Reported
                                   Depth    Depth      HGL   Occurrence   Max Depth
  Node                 Type       Meters   Meters   Meters  days hr:min      Meters
  ---------------------------------------------------------------------------------
  1025                 JUNCTION     0.01     0.01    15.76     1  09:09        0.01
  1029                 JUNCTION     0.03     0.05    15.14     1  03:05        0.05
  1032                 JUNCTION     0.18     1.29    15.69     1  00:26        0.56
  1033                 JUNCTION     0.25     0.64    14.96     1  11:32        0.63
  1035                 JUNCTION     0.32     1.75    15.85     1  10:59        0.80
  1037                 JUNCTION     2.62     3.54    14.52     1  11:31        3.49
  1038                 JUNCTION     2.62     3.54    14.52     1  11:31        3.49
  1039                 JUNCTION     1.67     2.70    14.72     1  10:59        2.57
  1040                 JUNCTION     1.67     2.70    14.72     1  10:59        2.57
  1041                 JUNCTION     0.92     2.02    14.84     1  10:59        1.84
  1042                 JUNCTION     0.92     2.02    14.84     1  10:59        1.84
  1043                 JUNCTION     0.89     2.00    14.86     1  10:59        1.82
  1044                 JUNCTION     0.89     2.00    14.86     1  10:59        1.82
  1049                 JUNCTION     0.01     0.01    14.21     1  09:30        0.01
  1051                 JUNCTION     0.26     0.70    13.47     1  11:44        0.70
  1057                 JUNCTION     0.53     1.08    13.28     1  11:46        1.07
  1058                 JUNCTION     0.23     0.54    15.00     1  11:30        0.51
  1063                 JUNCTION     0.02     0.02    15.75     1  02:27        0.02
  1082                 JUNCTION     0.02     0.03    15.45     1  08:56        0.03
  1093                 JUNCTION     0.03     0.05    17.78     1  09:30        0.05
  1094                 JUNCTION     0.53     1.19    13.80     1  11:32        1.17
  1103                 JUNCTION     0.01     0.01    13.75     1  09:25        0.01
  1109                 JUNCTION     0.01     0.02    14.04     1  02:45        0.02
  1110                 JUNCTION     0.02     0.02    14.05     1  09:41        0.02
  1130                 JUNCTION     0.00     0.00    16.86     0  00:00        0.00
  1139                 JUNCTION     0.15     0.16    16.12     1  10:00        0.16
  1141                 JUNCTION     0.00     0.00    16.00     0  00:00        0.00
  1221                 JUNCTION     0.59     1.17    13.47     1  11:46        1.17
  1222                 JUNCTION     0.52     1.11    13.45     1  11:50        1.11
  1223                 JUNCTION     0.29     0.76    13.45     1  11:41        0.76
  1224                 JUNCTION     0.04     0.19    13.52     1  11:41        0.18
  1225                 JUNCTION     0.01     0.07    13.51     1  11:41        0.07
  1231                 JUNCTION     3.66     4.53    14.38     1  10:59        4.50
  1232                 JUNCTION     3.72     4.58    14.38     1  10:59        4.56
  1929                 JUNCTION     0.02     0.03    16.04     1  02:05        0.03
  28885                JUNCTION     0.00     0.00    16.76     0  00:00        0.00
  28887                JUNCTION     0.02     0.03    16.23     1  10:00        0.03
  29699                JUNCTION     0.01     0.02    15.36     1  10:00        0.02
  30369                JUNCTION     0.20     0.70    16.32     1  12:26        0.61
  33275                JUNCTION     0.04     0.06    17.79     1  10:00        0.06
  33276                JUNCTION     0.04     0.06    18.15     1  10:00        0.06
  33277                JUNCTION     0.04     0.07    17.60     1  10:00        0.07
  33489                JUNCTION     0.03     0.04    18.13     1  08:52        0.04
  33490                JUNCTION     0.02     0.03    18.00     1  08:53        0.03
  33645                JUNCTION     0.00     0.00    17.16     0  00:00        0.00
  35471                JUNCTION     0.01     0.02    13.82     1  09:27        0.02
  35627                JUNCTION     0.05     0.08    20.05     1  09:48        0.08
  39977                JUNCTION     0.04     0.06    17.61     1  09:25        0.06
  40887                JUNCTION     0.02     0.03    16.03     1  09:40        0.03
  46262                JUNCTION     0.02     0.04    15.24     1  09:02        0.04
  46699                JUNCTION     0.15     0.46    13.26     1  11:51        0.46
  46700                JUNCTION     0.02     0.03    13.39     1  09:54        0.03
  46701                JUNCTION     0.01     0.02    13.81     1  09:24        0.02
  47739                JUNCTION     0.02     0.03    15.60     1  09:54        0.03
  47756                JUNCTION     0.04     0.06    15.74     1  09:56        0.06
  48123                JUNCTION     0.01     0.02    15.28     1  09:49        0.02
  48124                JUNCTION     0.01     0.01    15.38     1  09:17        0.01
  50929                JUNCTION     0.60     1.16    13.26     1  11:50        1.15
  50967                JUNCTION     0.01     0.01    15.52     1  02:55        0.01
  50968                JUNCTION     0.01     0.02    15.33     1  07:10        0.02
  50969                JUNCTION     0.01     0.02    15.00     1  21:32        0.02
  51650                JUNCTION     0.02     0.04    14.39     1  09:00        0.04
  52413                JUNCTION     0.01     0.01    15.66     1  09:45        0.01
  52414                JUNCTION     0.01     0.02    15.30     1  09:54        0.02
  52415                JUNCTION     0.02     0.03    15.07     1  09:54        0.03
  52416                JUNCTION     0.02     0.04    14.95     1  09:56        0.04
  52417                JUNCTION     0.03     0.04    14.66     1  10:00        0.04
  52418                JUNCTION     0.03     0.06    14.32     1  09:59        0.06
  52419                JUNCTION     0.01     0.01    15.71     1  03:33        0.01
  52736                JUNCTION     0.01     0.02    13.68     1  09:57        0.02
  52737                JUNCTION     0.01     0.02    14.02     1  09:50        0.02
  53532                JUNCTION     0.05     0.08    19.79     1  09:49        0.08
  53534                JUNCTION     0.04     0.07    19.79     1  09:50        0.07
  54034                JUNCTION     0.06     0.10    15.09     1  09:57        0.10
  54035                JUNCTION     0.04     0.06    15.40     1  09:43        0.06
  54036                JUNCTION     0.01     0.01    16.58     1  09:33        0.01
  54037                JUNCTION     0.03     0.05    15.71     1  09:52        0.05
  54038                JUNCTION     0.02     0.03    15.91     1  09:58        0.03
  54039                JUNCTION     0.01     0.03    16.51     1  09:41        0.03
  54040                JUNCTION     0.02     0.03    16.18     1  03:02        0.03
  54171                JUNCTION     0.02     0.03    19.78     1  09:42        0.03
  54172                JUNCTION     0.02     0.03    19.52     1  09:58        0.03
  54174                JUNCTION     0.06     0.07    19.30     1  09:57        0.07
  54500                JUNCTION     0.06     0.10    18.60     1  09:55        0.10
  54529                JUNCTION     0.01     0.01    17.51     1  05:44        0.01
  54530                JUNCTION     0.01     0.02    17.29     1  09:46        0.02
  54531                JUNCTION     0.03     0.04    16.92     1  09:44        0.04
  54532                JUNCTION     0.02     0.04    15.59     1  09:59        0.04
  54533                JUNCTION     0.02     0.05    16.16     1  09:56        0.05
  54534                JUNCTION     0.02     0.03    16.66     1  09:20        0.03
  56524                JUNCTION     0.36     1.30    18.60     1  19:19        1.30
  57317                JUNCTION     0.01     0.02    15.42     1  09:27        0.02
  57318                JUNCTION     0.02     0.03    15.05     1  09:35        0.03
  57319                JUNCTION     0.05     0.09    14.57     1  09:52        0.09
  58055                JUNCTION     0.02     0.03    15.94     1  09:57        0.03
  58056                JUNCTION     0.01     0.02    16.09     1  09:52        0.02
  58057                JUNCTION     0.01     0.02    16.22     1  10:00        0.02
  58058                JUNCTION     0.01     0.01    16.45     1  09:55        0.01
  59035                JUNCTION     0.01     0.02    19.73     1  09:34        0.02
  60231                JUNCTION     0.01     0.02    16.95     1  02:30        0.02
  60232                JUNCTION     0.01     0.02    17.26     1  02:27        0.02
  60464                JUNCTION     0.00     0.00    16.54     0  00:00        0.00
  60503                JUNCTION     0.00     0.00    20.78     0  00:00        0.00
  61724                JUNCTION     0.17     0.28    13.06     1  10:21        0.28
  61733                JUNCTION     0.11     0.33    17.43     1  10:01        0.32
  61736                JUNCTION     0.04     0.06    18.33     1  10:00        0.06
  61737                JUNCTION     0.03     0.05    18.66     1  10:00        0.05
  61738                JUNCTION     0.03     0.05    18.98     1  10:00        0.05
  61839                JUNCTION     0.00     0.00    17.29     0  00:00        0.00
  62021                JUNCTION     0.05     0.08    15.91     1  10:00        0.08
  62379                JUNCTION     0.05     0.23    13.33     1  11:55        0.21
  62386                JUNCTION     0.50     1.06    13.31     1  11:48        1.06
  62387                JUNCTION     0.24     0.66    13.31     1  11:44        0.66
  62396                JUNCTION     0.50     1.06    13.28     1  11:48        1.05
  62397                JUNCTION     0.01     0.04    13.27     1  11:38        0.04
  6249                 JUNCTION     0.02     0.03    14.85     1  08:55        0.03
  6250                 JUNCTION     0.01     0.02    14.54     1  09:00        0.02
  6318                 JUNCTION     0.05     0.07    14.10     1  09:00        0.07
  6319                 JUNCTION     0.03     0.05    13.93     1  09:00        0.05
  6320                 JUNCTION     0.01     0.02    14.69     1  09:00        0.02
  6321                 JUNCTION     0.01     0.02    14.99     1  09:38        0.02
  6324                 JUNCTION     0.01     0.02    15.46     1  03:15        0.02
  6365                 JUNCTION     0.19     0.30    13.06     1  10:21        0.30
  6366                 JUNCTION     0.05     0.07    13.85     1  09:00        0.07
  6367                 JUNCTION     0.19     0.34    13.21     1  10:20        0.34
  6368                 JUNCTION     0.19     0.31    13.08     1  10:21        0.31
  6369                 JUNCTION     0.16     0.25    13.20     1  10:21        0.25
  6370                 JUNCTION     0.14     0.22    13.33     1  10:20        0.22
  6371                 JUNCTION     0.15     0.25    13.31     1  10:20        0.25
  6372                 JUNCTION     0.04     0.06    13.41     1  09:03        0.06
  6373                 JUNCTION     0.02     0.03    13.74     1  09:00        0.03
  6391                 JUNCTION     0.01     0.03    15.56     1  03:16        0.03
  6417                 JUNCTION     0.23     0.46    13.74     1  10:44        0.46
  6418                 JUNCTION     0.20     0.40    13.62     1  10:44        0.40
  6419                 JUNCTION     0.07     0.12    13.14     1  12:13        0.12
  6420                 JUNCTION     0.12     0.20    13.83     1  09:27        0.20
  6421                 JUNCTION     0.09     0.15    14.27     1  09:26        0.15
  6422                 JUNCTION     0.06     0.10    14.87     1  09:24        0.10
  6423                 JUNCTION     0.18     0.22    14.68     1  09:25        0.22
  6424                 JUNCTION     0.07     0.14    15.38     1  09:23        0.14
  6426                 JUNCTION     0.05     0.11    15.84     1  19:50        0.11
  6427                 JUNCTION     0.07     1.10    17.09     0  23:51        1.10
  6428                 JUNCTION     0.02     0.11    16.24     1  06:49        0.11
  6429                 JUNCTION     0.02     0.02    15.77     1  02:44        0.02
  6430                 JUNCTION     0.01     0.02    16.02     1  09:46        0.02
  6431                 JUNCTION     0.01     0.01    15.98     1  03:28        0.01
  6432                 JUNCTION     0.02     0.02    15.58     1  09:55        0.02
  6433                 JUNCTION     0.01     0.02    15.32     1  09:55        0.02
  6434                 JUNCTION     0.03     0.05    15.15     1  10:00        0.05
  6435                 JUNCTION     0.03     0.05    14.89     1  10:00        0.05
  6436                 JUNCTION     0.04     0.06    14.58     1  10:00        0.06
  6437                 JUNCTION     0.05     0.10    14.10     1  09:54        0.10
  6438                 JUNCTION     0.03     0.04    14.18     1  10:00        0.04
  6439                 JUNCTION     0.03     0.05    14.97     1  10:00        0.05
  6440                 JUNCTION     0.03     0.05    15.18     1  10:00        0.05
  6441                 JUNCTION     0.02     0.02    15.41     1  09:59        0.02
  6442                 JUNCTION     0.01     0.02    15.97     1  03:05        0.02
  6443                 JUNCTION     0.04     0.06    14.55     1  10:00        0.06
  6444                 JUNCTION     0.04     0.07    14.45     1  10:00        0.07
  6445                 JUNCTION     0.03     0.05    14.92     1  09:53        0.05
  6446                 JUNCTION     0.04     0.06    14.68     1  10:00        0.06
  6447                 JUNCTION     0.03     0.04    15.29     1  09:59        0.04
  6448                 JUNCTION     0.02     0.04    15.69     1  09:41        0.04
  6449                 JUNCTION     0.02     0.03    15.82     1  09:09        0.03
  6525                 JUNCTION     0.02     0.04    15.62     1  02:34        0.04
  6553                 JUNCTION     0.02     0.02    18.36     1  21:19        0.02
  6554                 JUNCTION     0.04     0.05    17.91     1  21:25        0.05
  6555                 JUNCTION     0.02     0.03    17.97     1  03:02        0.03
  6557                 JUNCTION     0.01     0.02    18.33     1  03:02        0.02
  6559                 JUNCTION     0.01     0.03    18.04     1  09:28        0.03
  6560                 JUNCTION     0.06     0.09    17.87     1  09:57        0.09
  6561                 JUNCTION     0.06     0.11    18.48     1  09:56        0.11
  6563                 JUNCTION     0.06     0.09    18.87     1  09:54        0.09
  6564                 JUNCTION     0.05     0.08    19.28     1  09:51        0.08
  6565                 JUNCTION     0.05     0.08    19.48     1  09:50        0.08
  6566                 JUNCTION     0.04     0.07    19.93     1  09:49        0.07
  6567                 JUNCTION     0.04     0.06    20.34     1  09:48        0.06
  6568                 JUNCTION     0.02     0.04    15.40     1  09:42        0.04
  6569                 JUNCTION     0.02     0.03    15.57     1  09:32        0.03
  6574                 JUNCTION     0.03     0.04    15.40     1  03:06        0.04
  6575                 JUNCTION     0.02     0.02    15.72     1  10:00        0.02
  6576                 JUNCTION     0.01     0.02    15.93     1  09:46        0.02
  6587                 JUNCTION     0.04     0.06    15.07     1  10:00        0.06
  6588                 JUNCTION     0.05     0.07    14.87     1  01:42        0.07
  6593                 JUNCTION     0.02     0.03    14.97     1  11:33        0.03
  6594                 JUNCTION     0.27     0.65    14.95     1  11:32        0.65
  6595                 JUNCTION     0.12     1.34    15.74     1  10:59        0.50
  6596                 JUNCTION     0.33     1.73    15.79     1  10:59        0.84
  6600                 JUNCTION     0.16     1.06    16.03     1  02:10        0.53
  6603                 JUNCTION     0.44     1.50    15.27     1  10:59        1.07
  6604RVXG             JUNCTION     0.39     1.25    14.90     1  10:59        1.10
  6606                 JUNCTION     0.18     0.94    15.24     1  10:59        0.56
  6608                 JUNCTION     0.17     1.00    15.39     1  10:59        0.54
  6609                 JUNCTION     0.17     0.98    15.35     1  10:59        0.54
  6610                 JUNCTION     0.16     1.03    15.50     1  10:59        0.52
  6612                 JUNCTION     0.08     0.82    15.44     1  10:59        0.38
  6613                 JUNCTION     0.02     0.04    15.23     1  08:55        0.04
  6614                 JUNCTION     0.02     0.03    15.68     1  10:00        0.03
  6615                 JUNCTION     0.01     0.02    15.94     1  09:26        0.02
  6641                 JUNCTION     0.02     0.03    14.66     1  10:00        0.03
  6642                 JUNCTION     0.02     0.03    14.96     1  10:00        0.03
  6643                 JUNCTION     0.01     0.02    15.54     1  09:14        0.02
  6646                 JUNCTION     0.01     0.02    14.20     1  09:41        0.02
  6647                 JUNCTION     0.02     0.11    13.90     1  11:44        0.11
  6648                 JUNCTION     0.57     1.24    13.94     1  11:32        1.22
  6665                 JUNCTION     0.01     0.02    15.66     1  10:00        0.02
  6666                 JUNCTION     0.02     0.03    15.27     1  10:00        0.03
  6667                 JUNCTION     0.01     0.02    15.62     1  09:59        0.02
  6668                 JUNCTION     0.01     0.01    15.59     1  03:07        0.01
  6669                 JUNCTION     0.57     0.66    14.98     1  09:41        0.66
  6670                 JUNCTION     0.01     0.02    15.68     1  04:19        0.02
  6683                 JUNCTION     0.01     0.02    13.99     1  02:27        0.02
  6684                 JUNCTION     0.02     0.03    13.67     1  09:35        0.03
  6685                 JUNCTION     0.02     0.03    13.54     1  09:35        0.03
  6686                 JUNCTION     0.04     0.17    13.48     1  11:40        0.17
  6687                 JUNCTION     0.17     0.51    13.48     1  11:50        0.51
  6688                 JUNCTION     0.06     0.10    14.99     1  09:46        0.10
  6689                 JUNCTION     0.05     0.08    15.12     1  09:58        0.08
  6690                 JUNCTION     0.04     0.06    15.35     1  09:57        0.06
  6691                 JUNCTION     0.03     0.05    15.82     1  10:00        0.05
  6692                 JUNCTION     0.03     0.04    16.11     1  09:47        0.04
  6693                 JUNCTION     0.02     0.03    16.42     1  09:59        0.03
  6694                 JUNCTION     0.01     0.02    16.47     1  10:00        0.02
  6695                 JUNCTION     0.01     0.02    16.96     1  09:46        0.02
  6696                 JUNCTION     0.01     0.02    16.16     1  10:00        0.02
  6697                 JUNCTION     0.01     0.01    16.62     1  09:58        0.01
  6698                 JUNCTION     0.02     0.04    15.60     1  10:00        0.04
  6699                 JUNCTION     0.02     0.03    15.95     1  10:00        0.03
  6700                 JUNCTION     0.02     0.04    15.78     1  10:00        0.04
  6701                 JUNCTION     0.01     0.01    16.52     1  09:55        0.01
  6702                 JUNCTION     0.01     0.02    16.26     1  10:00        0.02
  6704                 JUNCTION     0.01     0.02    13.96     1  08:41        0.02
  6706                 JUNCTION     0.02     0.02    15.34     1  02:27        0.02
  6707                 JUNCTION     0.02     0.03    14.92     1  10:00        0.03
  6717                 JUNCTION     0.01     0.02    16.54     1  10:00        0.02
  6718                 JUNCTION     0.02     0.03    16.64     1  09:27        0.03
  6719                 JUNCTION     0.09     0.20    15.71     1  09:26        0.19
  6720CLPMO            JUNCTION     0.14     1.40    17.51     1  02:42        0.57
  6738                 JUNCTION     0.25     0.52    16.16     1  10:27        0.51
  6739                 JUNCTION     0.25     0.49    16.09     1  10:54        0.49
  6740                 JUNCTION     0.35     0.71    16.61     1  10:14        0.69
  6741                 JUNCTION     0.30     0.65    16.58     1  10:14        0.64
  6742                 JUNCTION     0.38     0.83    17.00     1  10:10        0.83
  6743                 JUNCTION     0.38     0.84    17.34     1  09:48        0.84
  6744                 JUNCTION     0.24     0.58    17.43     1  10:03        0.57
  6745                 JUNCTION     0.10     0.27    17.51     1  10:03        0.27
  6746                 JUNCTION     0.08     0.21    17.52     1  10:03        0.21
  6758                 JUNCTION     0.03     0.05    15.68     1  10:00        0.05
  6759                 JUNCTION     0.02     0.03    15.88     1  10:00        0.03
  6760                 JUNCTION     0.08     0.28    14.03     1  07:12        0.26
  6761                 JUNCTION     0.15     0.48    13.98     1  17:50        0.37
  6762                 JUNCTION     0.03     0.05    14.09     1  10:00        0.05
  6763                 JUNCTION     0.11     0.54    13.87     1  17:50        0.24
  6764                 JUNCTION     0.12     0.20    13.11     1  09:54        0.20
  6765                 JUNCTION     0.19     0.69    16.31     1  12:26        0.60
  6766                 JUNCTION     0.02     0.03    15.02     1  10:00        0.03
  6767                 JUNCTION     0.02     0.03    15.47     1  10:00        0.03
  6768                 JUNCTION     0.14     1.06    16.21     1  02:10        0.54
  6769                 JUNCTION     0.01     0.02    15.51     1  10:00        0.02
  6770                 JUNCTION     0.01     0.01    15.83     1  09:19        0.01
  6802                 JUNCTION     0.03     0.04    15.13     1  10:00        0.04
  6803                 JUNCTION     0.01     0.01    15.29     1  02:49        0.01
  6804                 JUNCTION     0.04     0.06    15.03     1  09:42        0.06
  6805                 JUNCTION     0.06     0.14    14.76     1  10:04        0.14
  6806                 JUNCTION     0.02     0.03    15.88     1  09:26        0.03
  6807                 JUNCTION     0.11     0.29    14.74     1  10:40        0.29
  6808                 JUNCTION     0.20     0.47    14.67     1  10:01        0.47
  6809                 JUNCTION     0.03     0.04    15.42     1  09:44        0.04
  6810                 JUNCTION     0.03     0.05    15.09     1  10:00        0.05
  6822                 JUNCTION     0.02     0.04    18.35     1  10:00        0.04
  6823                 JUNCTION     0.03     0.05    18.26     1  10:00        0.05
  6824                 JUNCTION     1.29     2.00    18.78     1  01:19        2.00
  6824PRI              JUNCTION     0.02     0.02    19.12     1  02:43        0.02
  6825                 JUNCTION     0.04     0.06    18.05     1  10:00        0.06
  6826                 JUNCTION     0.04     0.07    17.63     1  10:00        0.07
  6838                 JUNCTION     0.02     0.10    13.27     1  11:40        0.10
  6839                 JUNCTION     0.52     1.07    13.17     1  11:40        1.06
  6840                 JUNCTION     0.11     2.10    17.92     1  02:42        0.61
  6841                 JUNCTION     0.04     0.06    15.88     1  09:53        0.06
  6842                 JUNCTION     0.03     0.07    16.54     1  09:32        0.07
  6843                 JUNCTION     0.03     0.04    16.11     1  09:30        0.04
  6844                 JUNCTION     0.02     0.04    16.23     1  09:32        0.04
  6845                 JUNCTION     0.02     0.03    16.75     1  09:19        0.03
  6846                 JUNCTION     0.02     0.03    16.58     1  02:30        0.03
  6859                 JUNCTION     0.02     0.03    14.54     1  09:00        0.03
  6860                 JUNCTION     0.02     0.03    14.47     1  09:00        0.03
  6861                 JUNCTION     0.03     0.04    14.35     1  09:01        0.04
  6862                 JUNCTION     0.03     0.05    14.18     1  09:00        0.05
  6863                 JUNCTION     0.22     1.77    16.27     1  11:28        0.59
  6865                 JUNCTION     0.01     0.02    15.21     1  09:07        0.02
  6867                 JUNCTION     0.01     0.02    15.03     1  09:00        0.02
  6868                 JUNCTION     1.54   101.31   116.23     1  01:25       48.68
  6869                 JUNCTION     0.01     0.02    15.41     1  10:00        0.02
  6870                 JUNCTION     0.01     0.02    15.75     1  02:41        0.02
  6871                 JUNCTION     0.02     0.03    15.71     1  14:10        0.03
  6872                 JUNCTION     0.02     0.04    15.60     1  02:32        0.04
  6873                 JUNCTION     0.03     0.05    15.32     1  02:50        0.05
  6874                 JUNCTION     0.07     0.11    15.07     1  09:24        0.11
  6875                 JUNCTION     0.03     0.04    15.43     1  08:37        0.04
  6876                 JUNCTION     0.03     0.04    15.52     1  09:54        0.04
  6877                 JUNCTION     0.02     0.04    15.85     1  02:36        0.04
  6878                 JUNCTION     0.02     0.03    15.88     1  02:19        0.03
  6896                 JUNCTION     0.01     0.02    17.14     1  09:55        0.02
  6897                 JUNCTION     0.01     0.01    16.68     1  04:05        0.01
  6898                 JUNCTION     0.01     0.01    16.66     1  04:27        0.01
  6899                 JUNCTION     0.01     0.02    16.89     1  10:00        0.02
  6900                 JUNCTION     0.01     0.02    16.65     1  10:00        0.02
  6901                 JUNCTION     0.01     0.02    16.28     1  09:35        0.02
  6902                 JUNCTION     0.02     0.03    16.38     1  10:00        0.03
  6903                 JUNCTION     0.02     0.04    16.02     1  10:00        0.04
  6904                 JUNCTION     0.01     0.01    16.43     1  09:59        0.01
  6905                 JUNCTION     0.01     0.02    16.18     1  10:00        0.02
  6906                 JUNCTION     0.01     0.01    16.17     1  03:03        0.01
  6907                 JUNCTION     0.01     0.01    16.59     1  10:00        0.01
  6921                 JUNCTION     0.02     0.02    15.34     1  09:00        0.02
  6922                 JUNCTION     0.01     0.02    15.71     1  08:38        0.02
  6923                 JUNCTION     0.02     0.03    15.88     1  02:20        0.03
  6924                 JUNCTION     0.02     0.04    15.50     1  09:48        0.04
  6925                 JUNCTION     0.09     0.15    14.48     1  09:25        0.15
  6926                 JUNCTION     0.03     0.06    14.86     1  09:00        0.06
  6927                 JUNCTION     0.01     0.01    15.86     1  09:25        0.01
  6928                 JUNCTION     0.03     0.05    15.16     1  08:48        0.05
  6929                 JUNCTION     0.02     0.04    15.64     1  08:59        0.04
  6984                 JUNCTION     0.03     0.12    15.70     1  09:58        0.12
  6985                 JUNCTION     0.04     0.10    15.15     1  09:59        0.10
  6986                 JUNCTION     0.01     0.01    15.62     1  17:54        0.01
  6987                 JUNCTION     0.04     0.08    14.98     1  09:59        0.08
  6988                 JUNCTION     0.04     0.09    14.86     1  10:00        0.09
  6989                 JUNCTION     0.06     0.13    14.69     1  09:56        0.13
  6990                 JUNCTION     0.05     0.09    14.26     1  09:53        0.09
  6991                 JUNCTION     0.02     0.03    14.45     1  09:41        0.03
  6992                 JUNCTION     0.01     0.02    15.20     1  03:13        0.02
  6993                 JUNCTION     0.02     0.03    14.71     1  09:59        0.03
  6994                 JUNCTION     0.01     0.02    15.14     1  16:41        0.02
  6995                 JUNCTION     0.01     0.02    14.91     1  09:38        0.02
  7001                 JUNCTION     0.01     0.02    15.32     1  09:37        0.02
  7096                 JUNCTION     0.15     0.25    13.72     1  10:17        0.25
  7097                 JUNCTION     0.36     0.52    13.72     1  10:17        0.52
  7098                 JUNCTION     0.17     0.27    13.79     1  10:17        0.27
  7099                 JUNCTION     0.10     0.14    13.84     1  10:01        0.14
  7100                 JUNCTION     0.05     0.08    14.00     1  10:00        0.08
  7101                 JUNCTION     0.03     0.05    14.27     1  10:00        0.05
  7102                 JUNCTION     0.03     0.04    14.56     1  10:00        0.04
  7103                 JUNCTION     0.01     0.02    15.03     1  09:42        0.02
  7104                 JUNCTION     0.27     0.57    14.18     1  10:44        0.57
  7105                 JUNCTION     0.33     0.73    14.57     1  10:29        0.72
  7106                 JUNCTION     0.33     0.71    14.52     1  10:04        0.71
  7107                 JUNCTION     0.34     0.74    14.74     1  10:42        0.74
  7108                 JUNCTION     0.31     0.69    14.93     1  10:41        0.69
  7109                 JUNCTION     0.26     0.59    15.07     1  10:40        0.59
  7110                 JUNCTION     0.19     0.45    15.21     1  10:41        0.44
  7111                 JUNCTION     0.10     0.27    15.31     1  10:40        0.27
  7112                 JUNCTION     0.03     0.06    15.53     1  09:59        0.06
  7113                 JUNCTION     0.02     0.04    15.82     1  09:59        0.04
  7114                 JUNCTION     0.02     0.03    16.16     1  09:54        0.03
  7115                 JUNCTION     0.00     0.00    15.40     0  00:00        0.00
  7116                 JUNCTION     0.07     0.12    15.50     1  09:45        0.12
  7123                 JUNCTION     0.05     0.16    17.44     1  10:04        0.16
  7124                 JUNCTION     0.01     0.02    17.50     1  02:18        0.02
  7125                 JUNCTION     0.03     0.05    17.68     1  08:00        0.05
  7148                 JUNCTION     0.10     0.42    13.85     1  08:24        0.38
  7149                 JUNCTION     0.54     1.19    13.81     1  11:43        1.18
  7150                 JUNCTION     0.54     1.14    13.60     1  11:40        1.14
  7187                 JUNCTION     0.14     0.48    13.80     1  11:32        0.48
  71873                JUNCTION     0.00     0.00    17.69     0  00:00        0.00
  72224                JUNCTION     0.01     0.01    18.83     1  03:18        0.01
  72225                JUNCTION     0.01     0.02    19.49     1  03:14        0.02
  7223                 JUNCTION     0.04     0.06    13.70     1  10:00        0.06
  7224                 JUNCTION     0.03     0.05    14.06     1  10:00        0.05
  7225                 JUNCTION     0.05     0.09    13.84     1  10:00        0.09
  7226                 JUNCTION     0.03     0.05    14.16     1  10:00        0.05
  7227                 JUNCTION     0.03     0.04    14.46     1  10:00        0.04
  7228                 JUNCTION     0.01     0.02    14.81     1  09:59        0.02
  7229                 JUNCTION     0.02     0.03    14.83     1  09:58        0.03
  7230                 JUNCTION     0.01     0.02    15.17     1  09:38        0.02
  7233                 JUNCTION     0.01     0.01    14.61     1  09:00        0.01
  7234                 JUNCTION     0.01     0.01    14.67     1  08:28        0.01
  7235                 JUNCTION     0.01     0.01    14.84     1  09:00        0.01
  7236                 JUNCTION     0.00     0.01    14.97     1  09:33        0.01
  7272                 JUNCTION     0.04     0.06    15.22     1  02:47        0.06
  7273                 JUNCTION     0.03     0.05    15.63     1  09:40        0.05
  7274                 JUNCTION     0.02     0.03    16.03     1  09:20        0.03
  7295                 JUNCTION     0.09     0.43    14.15     1  09:48        0.34
  7296                 JUNCTION     0.02     0.03    14.23     1  09:51        0.03
  7297                 JUNCTION     0.02     0.03    14.10     1  07:23        0.03
  7298                 JUNCTION     0.01     0.01    15.25     1  02:29        0.01
  7299                 JUNCTION     0.11     0.37    13.81     1  09:48        0.33
  7300                 JUNCTION     0.12     0.34    13.68     1  09:48        0.33
  7301                 JUNCTION     0.14     0.32    13.50     1  09:54        0.32
  73013                JUNCTION     0.17     0.31    13.37     1  10:30        0.31
  7302                 JUNCTION     0.12     0.29    13.46     1  09:45        0.29
  7303                 JUNCTION     0.08     0.12    13.01     1  09:55        0.12
  7304                 JUNCTION     0.04     0.06    13.48     1  10:00        0.06
  7305                 JUNCTION     0.03     0.06    14.14     1  10:00        0.06
  7306                 JUNCTION     0.03     0.05    14.33     1  10:00        0.05
  7307                 JUNCTION     0.02     0.03    14.91     1  10:00        0.03
  7308                 JUNCTION     0.03     0.05    14.00     1  10:00        0.05
  7309                 JUNCTION     0.04     0.06    13.68     1  10:00        0.06
  7310                 JUNCTION     0.07     0.27    13.57     1  11:41        0.26
  7326                 JUNCTION     0.01     0.02    14.83     1  08:29        0.02
  7327                 JUNCTION     0.02     0.03    14.40     1  08:59        0.03
  7328                 JUNCTION     0.03     0.14    14.19     1  11:34        0.14
  7329                 JUNCTION     0.55     1.32    14.27     1  10:59        1.28
  7330                 JUNCTION     0.02     0.91    14.91     1  10:59        0.22
  7331                 JUNCTION     0.01     0.02    14.52     1  08:40        0.02
  7332                 JUNCTION     0.01     0.02    14.16     1  02:13        0.02
  7333                 JUNCTION     0.02     0.04    13.85     1  09:46        0.04
  7334                 JUNCTION     0.01     0.02    14.24     1  09:18        0.02
  7350                 JUNCTION     0.01     0.02    15.04     1  10:59        0.02
  7404                 JUNCTION     0.06     0.10    16.74     1  07:13        0.10
  7405                 JUNCTION     0.05     0.08    17.15     1  10:00        0.08
  7406                 JUNCTION     0.03     0.05    17.31     1  09:48        0.05
  7407                 JUNCTION     0.02     0.04    17.62     1  09:35        0.04
  7408                 JUNCTION     0.01     0.02    17.89     1  09:24        0.02
  7409                 JUNCTION     0.01     0.02    16.83     1  09:31        0.02
  7410                 JUNCTION     0.01     0.02    16.83     1  09:21        0.02
  7411                 JUNCTION     0.03     0.10    16.56     1  10:01        0.10
  7425                 JUNCTION     0.01     0.01    16.40     1  09:41        0.01
  7426                 JUNCTION     0.01     0.01    16.53     1  09:15        0.01
  7427                 JUNCTION     0.06     0.11    15.76     1  10:04        0.11
  7428                 JUNCTION     0.01     0.03    15.76     1  10:04        0.03
  7429                 JUNCTION     0.16     0.26    15.75     1  10:04        0.26
  7430                 JUNCTION     0.15     0.24    16.08     1  10:03        0.24
  7431                 JUNCTION     0.15     0.24    16.31     1  10:02        0.24
  7432                 JUNCTION     0.15     0.23    16.53     1  10:02        0.23
  7433                 JUNCTION     0.18     0.28    16.84     1  10:01        0.28
  7434                 JUNCTION     0.01     0.02    16.95     1  09:28        0.02
  7435                 JUNCTION     0.17     0.27    16.84     1  10:01        0.27
  7437                 JUNCTION     0.03     0.05    16.03     1  09:58        0.05
  7438                 JUNCTION     0.02     0.03    16.53     1  10:00        0.03
  7440                 JUNCTION     0.04     0.06    15.83     1  10:00        0.06
  7443                 JUNCTION     0.08     0.15    15.65     1  10:00        0.15
  7444                 JUNCTION     0.06     0.09    15.33     1  10:01        0.09
  7445                 JUNCTION     0.20     0.35    15.65     1  09:59        0.35
  74454                JUNCTION     0.00     0.00    17.55     0  00:00        0.00
  7446                 JUNCTION     0.12     0.21    16.26     1  10:01        0.21
  7447                 JUNCTION     0.08     0.13    16.89     1  10:00        0.13
  7448                 JUNCTION     0.08     0.13    17.23     1  10:03        0.13
  7449                 JUNCTION     0.09     0.13    17.53     1  10:02        0.13
  7450                 JUNCTION     0.08     0.13    18.07     1  10:02        0.13
  7451                 JUNCTION     0.02     0.03    18.22     1  02:57        0.03
  74516                JUNCTION     0.02     0.05    20.17     1  09:09        0.05
  74517                JUNCTION     0.02     0.03    20.58     1  03:51        0.03
  7452                 JUNCTION     0.08     0.12    18.25     1  10:02        0.12
  74539                JUNCTION     0.00     0.00    20.79     0  00:00        0.00
  7460                 JUNCTION     0.01     0.02    15.87     1  03:26        0.02
  7461                 JUNCTION     0.02     0.03    15.39     1  09:43        0.03
  7463                 JUNCTION     0.01     0.02    15.53     1  02:55        0.02
  7466                 JUNCTION     0.04     0.07    17.39     1  09:25        0.07
  7467                 JUNCTION     0.04     0.07    17.50     1  10:00        0.07
  7468                 JUNCTION     0.03     0.05    17.67     1  10:00        0.05
  7469                 JUNCTION     0.01     0.02    18.08     1  10:00        0.02
  7470                 JUNCTION     0.02     0.03    17.93     1  09:54        0.03
  7471                 JUNCTION     0.03     0.05    17.77     1  10:00        0.05
  7474                 JUNCTION     0.01     0.02    18.15     1  09:29        0.02
  7475                 JUNCTION     0.03     0.05    17.86     1  10:00        0.05
  7476                 JUNCTION     0.03     0.04    18.00     1  09:59        0.04
  7477                 JUNCTION     0.02     0.04    18.06     1  09:55        0.04
  7478                 JUNCTION     0.02     0.03    18.13     1  09:54        0.03
  7479                 JUNCTION     0.02     0.03    18.46     1  09:53        0.03
  7480                 JUNCTION     0.02     0.03    18.40     1  09:59        0.03
  7481                 JUNCTION     0.02     0.03    18.41     1  09:56        0.03
  7482                 JUNCTION     0.01     0.01    18.60     1  19:20        0.01
  7502                 JUNCTION     0.01     0.02    16.56     1  20:13        0.02
  7512                 JUNCTION     0.01     0.02    17.53     1  10:00        0.02
  7513                 JUNCTION     0.01     0.01    17.91     1  10:00        0.01
  7541                 JUNCTION     0.01     0.02    17.55     1  05:53        0.02
  7542                 JUNCTION     0.22     0.44    17.44     1  09:57        0.43
  7543                 JUNCTION     0.17     0.43    17.43     1  10:13        0.42
  7544                 JUNCTION     0.16     0.41    17.48     1  10:14        0.40
  7545                 JUNCTION     0.04     0.07    17.74     1  09:59        0.07
  7548                 JUNCTION     0.04     0.06    18.22     1  09:48        0.06
  7549                 JUNCTION     0.04     0.05    18.31     1  09:52        0.05
  7550                 JUNCTION     0.03     0.05    18.69     1  09:38        0.05
  7551                 JUNCTION     0.03     0.05    18.74     1  09:32        0.05
  7552                 JUNCTION     0.01     0.02    19.07     1  09:30        0.02
  7553                 JUNCTION     0.03     0.04    19.00     1  09:48        0.04
  7554                 JUNCTION     0.02     0.03    19.13     1  09:14        0.03
  7555                 JUNCTION     0.03     0.04    19.11     1  09:19        0.04
  7556                 JUNCTION     0.01     0.02    19.28     1  04:05        0.02
  7557                 JUNCTION     0.02     0.03    13.71     1  09:10        0.03
  7558                 JUNCTION     0.01     0.02    13.96     1  09:42        0.02
  7610NPSOT            JUNCTION     0.21     1.55    16.23     1  08:49        1.55
  7611                 JUNCTION     0.00     0.00    14.69     0  00:00        0.00
  7612                 JUNCTION     0.03     0.04    14.03     1  09:00        0.04
  7613                 JUNCTION     0.02     0.03    14.44     1  09:59        0.03
  7615                 JUNCTION     0.01     0.03    14.87     1  09:48        0.03
  7616                 JUNCTION     0.03     0.05    15.20     1  10:00        0.05
  7617                 JUNCTION     0.02     0.02    15.43     1  02:55        0.02
  7618                 JUNCTION     0.04     0.05    15.46     1  10:00        0.05
  7619                 JUNCTION     0.01     0.01    15.85     1  03:23        0.01
  7620                 JUNCTION     0.01     0.01    16.45     1  02:31        0.01
  7621                 JUNCTION     0.03     0.04    15.61     1  10:00        0.04
  7622                 JUNCTION     0.02     0.04    15.73     1  10:00        0.04
  7623                 JUNCTION     0.02     0.03    15.88     1  10:00        0.03
  7624                 JUNCTION     0.02     0.02    16.05     1  10:00        0.02
  7625                 JUNCTION     0.02     0.02    16.01     1  09:27        0.02
  7626                 JUNCTION     0.01     0.02    16.12     1  10:00        0.02
  7627                 JUNCTION     0.05     0.08    15.92     1  10:00        0.08
  7628                 JUNCTION     0.05     0.07    16.23     1  10:00        0.07
  7629                 JUNCTION     0.04     0.07    16.60     1  09:43        0.07
  7630                 JUNCTION     0.04     0.07    16.54     1  09:47        0.07
  7632                 JUNCTION     0.04     0.07    16.80     1  09:43        0.07
  7633                 JUNCTION     0.04     0.06    16.79     1  09:44        0.06
  7634                 JUNCTION     0.04     0.07    17.01     1  09:40        0.07
  7635                 JUNCTION     0.04     0.06    17.21     1  09:34        0.06
  7655                 JUNCTION     0.01     0.02    18.39     1  02:27        0.02
  7656                 JUNCTION     0.02     0.03    18.75     1  09:54        0.03
  7657                 JUNCTION     0.02     0.02    18.59     1  10:00        0.02
  7658                 JUNCTION     0.01     0.02    19.06     1  10:00        0.02
  7659                 JUNCTION     0.02     0.02    19.71     1  16:57        0.02
  7660                 JUNCTION     0.02     0.02    19.64     1  03:28        0.02
  7661                 JUNCTION     0.04     0.06    19.02     1  10:00        0.06
  7662                 JUNCTION     0.04     0.06    19.48     1  10:00        0.06
  7663                 JUNCTION     0.03     0.05    19.91     1  10:00        0.05
  7664                 JUNCTION     0.01     0.02    20.24     1  10:00        0.02
  7665                 JUNCTION     0.00     0.01    20.66     1  10:00        0.01
  7673                 JUNCTION     0.01     0.01    18.63     1  09:10        0.01
  7674                 JUNCTION     0.01     0.02    18.47     1  09:02        0.02
  7675                 JUNCTION     0.02     0.03    18.12     1  09:25        0.03
  7676                 JUNCTION     0.02     0.03    18.36     1  09:18        0.03
  77051                JUNCTION     0.01     0.02    14.67     1  19:38        0.02
  7713                 JUNCTION     0.02     0.04    14.90     1  09:00        0.04
  7714                 JUNCTION     0.03     0.05    14.70     1  09:00        0.05
  7715                 JUNCTION     0.04     0.05    13.56     1  09:02        0.05
  7716                 JUNCTION     0.01     0.02    15.10     1  10:00        0.02
  7717                 JUNCTION     0.01     0.02    15.11     1  09:59        0.02
  7718                 JUNCTION     0.03     0.05    14.52     1  10:00        0.05
  7719                 JUNCTION     0.01     0.02    14.98     1  09:32        0.02
  7720                 JUNCTION     0.03     0.04    14.82     1  10:00        0.04
  7724                 JUNCTION     0.19     0.33    13.33     1  10:19        0.33
  7725                 JUNCTION     0.19     0.32    13.46     1  10:18        0.32
  7726                 JUNCTION     0.15     0.25    13.48     1  10:19        0.25
  7727                 JUNCTION     0.19     0.34    13.59     1  10:18        0.34
  7728                 JUNCTION     0.15     0.25    13.60     1  10:18        0.25
  7729                 JUNCTION     0.16     0.26    13.88     1  10:17        0.26
  7730                 JUNCTION     0.16     0.65    14.30     1  08:53        0.29
  7731                 JUNCTION     0.17     0.29    14.07     1  10:16        0.29
  7732                 JUNCTION     0.17     1.13    14.98     1  08:53        0.30
  7733                 JUNCTION     0.16     0.28    14.25     1  10:15        0.28
  7734                 JUNCTION     0.17     0.30    14.25     1  10:15        0.30
  7735                 JUNCTION     0.16     0.27    14.34     1  10:15        0.27
  7736                 JUNCTION     0.17     0.29    14.44     1  10:13        0.29
  7737                 JUNCTION     0.02     0.03    15.09     1  09:45        0.03
  7738                 JUNCTION     0.15     0.26    14.50     1  10:14        0.26
  7739                 JUNCTION     0.15     0.25    14.53     1  10:14        0.25
  7740                 JUNCTION     0.17     0.29    14.55     1  10:12        0.29
  7741                 JUNCTION     0.12     0.19    14.72     1  10:11        0.19
  7742                 JUNCTION     0.12     0.19    14.61     1  10:11        0.19
  7743                 JUNCTION     0.16     0.26    14.69     1  10:11        0.26
  7744PNF              JUNCTION     0.16     0.26    14.72     1  10:11        0.26
  7745                 JUNCTION     0.06     0.12    14.72     1  10:10        0.12
  7746                 JUNCTION     0.18     0.28    15.02     1  10:11        0.28
  7747                 JUNCTION     0.18     0.28    15.60     1  10:05        0.28
  7748                 JUNCTION     0.17     0.27    15.17     1  10:09        0.27
  7749                 JUNCTION     0.02     0.03    15.22     1  10:00        0.03
  7750                 JUNCTION     0.02     0.03    15.54     1  10:00        0.03
  7751                 JUNCTION     0.18     0.28    15.32     1  10:07        0.28
  7752                 JUNCTION     0.02     0.02    15.86     1  10:00        0.02
  7753                 JUNCTION     0.19     0.30    15.47     1  10:06        0.30
  7754                 JUNCTION     0.01     0.02    16.18     1  10:00        0.02
  7755                 JUNCTION     0.01     0.01    16.58     1  10:00        0.01
  7765                 JUNCTION     0.01     0.02    15.41     1  09:38        0.02
  7766                 JUNCTION     0.12     0.51    14.33     1  10:59        0.49
  7767                 JUNCTION     0.56     1.33    14.33     1  10:59        1.32
  7768                 JUNCTION     0.02     0.03    14.97     1  08:51        0.03
  7769                 JUNCTION     0.02     0.03    14.53     1  09:00        0.03
  7770                 JUNCTION     0.02     0.04    14.38     1  10:00        0.04
  7771                 JUNCTION     0.03     0.04    14.31     1  10:00        0.04
  7772                 JUNCTION     0.02     0.03    14.84     1  10:00        0.03
  7773                 JUNCTION     0.01     0.02    15.07     1  09:35        0.02
  7774                 JUNCTION     0.01     0.02    15.15     1  02:25        0.02
  7775                 JUNCTION     0.02     0.03    14.86     1  09:42        0.03
  7776                 JUNCTION     0.02     0.04    14.57     1  10:00        0.04
  7798                 JUNCTION     0.49     1.02    13.12     1  11:45        1.02
  7799                 JUNCTION     0.39     0.67    12.36     1  11:41        0.67
  7801                 JUNCTION     0.34     0.56    11.92     1  11:42        0.56
  7923                 JUNCTION     0.20     0.50    17.00     1  10:00        0.49
  7924                 JUNCTION     0.01     0.02    17.07     1  09:40        0.02
  79281                JUNCTION     0.19     0.37    13.75     1  08:53        0.35
  79284                JUNCTION     0.17     0.36    13.76     1  08:53        0.34
  8028                 JUNCTION     0.01     0.02    15.58     1  10:00        0.02
  8029                 JUNCTION     0.02     0.03    15.05     1  10:00        0.03
  8030                 JUNCTION     0.02     0.03    14.69     1  10:00        0.03
  8031                 JUNCTION     0.03     0.05    14.48     1  10:00        0.05
  8032                 JUNCTION     0.06     0.08    14.34     1  10:00        0.08
  8033                 JUNCTION     0.02     0.03    14.80     1  09:41        0.03
  8034                 JUNCTION     0.01     0.02    15.14     1  05:04        0.02
  8035                 JUNCTION     0.01     0.02    15.28     1  02:15        0.02
  8036                 JUNCTION     0.01     0.01    14.92     1  02:50        0.01
  8037                 JUNCTION     0.02     0.03    15.11     1  09:48        0.03
  8038                 JUNCTION     0.01     0.01    15.49     1  09:35        0.01
  8039                 JUNCTION     0.01     0.01    15.58     1  09:08        0.01
  8040                 JUNCTION     0.02     0.03    14.57     1  09:01        0.03
  8041                 JUNCTION     0.01     0.02    14.65     1  09:00        0.02
  8042                 JUNCTION     0.01     0.02    15.65     1  08:01        0.02
  8043                 JUNCTION     0.02     0.02    15.48     1  03:20        0.02
  8044                 JUNCTION     0.03     0.71    15.43     1  11:33        0.19
  8045                 JUNCTION     0.02     0.03    15.23     1  09:42        0.03
  8046                 JUNCTION     0.02     0.04    15.05     1  09:58        0.04
  8047                 JUNCTION     0.02     0.03    15.43     1  09:32        0.03
  8048                 JUNCTION     0.01     0.02    15.70     1  02:44        0.02
  8054                 JUNCTION     0.02     0.03    16.08     1  10:08        0.03
  8055                 JUNCTION     0.53     1.13    13.46     1  11:38        1.12
  8060                 JUNCTION     0.27     0.72    13.48     1  11:49        0.71
  8061                 JUNCTION     0.22     0.62    13.52     1  11:40        0.61
  8088                 JUNCTION     0.55     1.26    14.05     1  11:32        1.25
  8094                 JUNCTION     0.50     1.25    14.34     1  10:59        1.24
  8116                 JUNCTION     0.01     0.02    15.31     1  09:57        0.02
  8117                 JUNCTION     0.01     0.02    15.64     1  09:55        0.02
  8118                 JUNCTION     0.02     0.03    15.14     1  09:59        0.03
  8119                 JUNCTION     0.01     0.02    15.37     1  12:25        0.02
  8136                 JUNCTION     0.01     0.02    14.71     1  09:38        0.02
  8143                 JUNCTION     0.01     0.02    15.32     1  06:14        0.02
  8144                 JUNCTION     0.01     0.02    15.56     1  09:22        0.02
  8145                 JUNCTION     0.02     0.03    15.20     1  09:51        0.03
  8146                 JUNCTION     0.01     0.02    16.21     1  09:26        0.02
  8147                 JUNCTION     0.12     0.21    14.09     1  09:27        0.21
  8149                 JUNCTION     0.02     0.04    15.77     1  10:00        0.04
  8150                 JUNCTION     0.05     0.09    15.16     1  10:00        0.09
  8151                 JUNCTION     0.02     0.03    16.02     1  10:00        0.03
  8152                 JUNCTION     0.05     0.08    15.53     1  10:00        0.08
  8153                 JUNCTION     0.04     0.06    15.89     1  09:45        0.06
  8154                 JUNCTION     0.03     0.05    16.27     1  09:34        0.05
  8158                 JUNCTION     0.01     0.01    15.21     1  09:06        0.01
  8159                 JUNCTION     0.01     0.01    14.65     1  08:41        0.01
  8614                 JUNCTION     0.02     0.03    18.58     1  02:54        0.03
  F1031                JUNCTION     0.06     0.72    16.45     1  11:50        0.30
  F1102                JUNCTION     0.74     3.69    18.52     1  11:50        2.88
  F1105                JUNCTION     1.87     3.56    18.06     1  17:47        3.20
  F1106                JUNCTION     1.96     3.60    17.99     1  17:47        3.24
  F1133                JUNCTION     0.89     2.33    19.55     1  09:59        2.33
  F1133A               JUNCTION     4.81     6.94    20.74     1  10:02        6.93
  F15                  JUNCTION     2.81    14.21    28.21     1  11:50       12.49
  F4020                JUNCTION     1.79     7.14    20.28     1  11:50        5.68
  F56512B              JUNCTION    11.50    23.45    37.15     1  15:28       22.89
  F59523               JUNCTION     6.92    18.70    36.48     1  15:28       17.93
  F59524               JUNCTION     4.60    17.36    34.60     1  13:04       13.27
  F59525               JUNCTION     4.50    17.24    34.45     1  13:04       13.04
  F59526               JUNCTION     4.32    16.71    33.88     1  13:04       12.56
  F59527               JUNCTION     1.39    11.21    27.64     1  00:23        3.84
  F59528               JUNCTION     0.32     2.11    18.26     1  02:42        1.03
  F60235               JUNCTION     7.03    18.84    36.64     1  15:28       18.09
  F60355               JUNCTION     6.18    15.74    27.74     0  00:38       13.44
  F60355B              JUNCTION     2.88     8.24    20.24     1  08:48        7.32
  F60355P              JUNCTION     2.89    13.29    25.29     1  08:48        9.67
  F60359               JUNCTION     2.37    23.49    34.99     1  11:49       22.35
  F60359A              JUNCTION     3.16    19.82    35.22     1  02:55       18.01
  F60359B              JUNCTION     6.47    23.48    34.98     1  11:49       22.35
  F60366               JUNCTION     0.08     3.97    19.52     1  02:27        0.87
  F60370               JUNCTION     1.97     3.83    18.83     1  17:47        3.65
  F60370B              JUNCTION     1.73     4.11    19.11     1  17:47        3.68
  F60440               JUNCTION     0.07     4.95    21.11     1  11:50        1.60
  F60452               JUNCTION     0.70     4.10    18.92     1  11:50        3.01
  F6045B               JUNCTION     4.76    16.70    28.70     0  00:38       10.65
  F62223               JUNCTION     0.12     0.24    20.59     1  09:46        0.24
  NAB2COL              JUNCTION     0.00     0.00    22.00     0  00:00        0.00
  NAB2MCL              JUNCTION     0.07     0.10    22.10     1  10:01        0.10
  NABRES               JUNCTION     0.58     0.61    22.61     1  09:52        0.61
  NABRR                JUNCTION     0.53     0.55    22.55     1  10:00        0.55
  OFALL-16             OUTFALL      0.20     0.33    11.57     1  11:42        0.33
  BUDEB9               STORAGE      0.35     0.60    13.74     1  10:39        0.60
  BUDWB4               STORAGE      0.37     1.53    12.97     1  12:11        1.53
  CLEAB32              STORAGE      0.42     0.75    14.38     1  03:29        0.75
  COLNB21              STORAGE      0.60     0.60    18.82     0  00:38        0.60
  ENDEB10              STORAGE      0.43     0.60    14.95     1  07:23        0.60
  GASCB5               STORAGE      0.38     0.75    12.86     1  08:09        0.75
  LANEB8               STORAGE      0.34     0.60    12.71     1  09:32        0.60
  MCLAB6               STORAGE      1.30     1.30    15.03     0  00:00        1.30
  NANB                 STORAGE      0.12     0.25    22.25     1  10:00        0.25
  NELSB3               STORAGE      0.36     0.75    12.48     1  10:55        0.74
  
  
  *******************
  Node Inflow Summary
  *******************
  
  -------------------------------------------------------------------------------------------------
                                  Maximum  Maximum                  Lateral       Total        Flow
                                  Lateral    Total  Time of Max      Inflow      Inflow     Balance
                                   Inflow   Inflow   Occurrence      Volume      Volume       Error
  Node                 Type           LPS      LPS  days hr:min    10^6 ltr    10^6 ltr     Percent
  -------------------------------------------------------------------------------------------------
  1025                 JUNCTION      0.24     0.24     1  09:00      0.0187      0.0187       0.054
  1029                 JUNCTION      1.00     2.48     1  02:35      0.0858       0.214       0.218
  1032                 JUNCTION      0.73     1.20     1  00:25      0.0583      0.0681       0.303
  1033                 JUNCTION      0.00     1.48     0  01:03           0      0.0857       0.743
  1035                 JUNCTION      0.34   289.10     1  10:59      0.0264        16.7       0.292
  1037                 JUNCTION      0.00   130.75     1  10:59           0        9.64       0.045
  1038                 JUNCTION      0.00   130.75     1  10:59           0        9.63       0.045
  1039                 JUNCTION      0.00   130.56     1  10:59           0        9.64       0.036
  1040                 JUNCTION      0.00   130.55     1  10:59           0        9.64       0.036
  1041                 JUNCTION      0.00   129.76     1  10:59           0        9.64       0.012
  1042                 JUNCTION      0.00   129.76     1  10:59           0        9.64       0.012
  1043                 JUNCTION      0.00   129.29     1  10:59           0        9.64       0.013
  1044                 JUNCTION      0.00   129.31     1  10:59           0        9.64       0.013
  1049                 JUNCTION      0.13     0.13     1  09:00      0.0101      0.0101       0.142
  1051                 JUNCTION      0.21     2.44     1  12:06      0.0165       0.183       0.314
  1057                 JUNCTION      0.07   258.48     1  11:35     0.00527        20.7       0.069
  1058                 JUNCTION      0.00   379.57     1  10:56           0          16       1.188
  1063                 JUNCTION      0.48     0.48     1  02:00      0.0415      0.0416       0.060
  1082                 JUNCTION      0.15     2.28     1  08:52       0.013       0.179       0.066
  1093                 JUNCTION      0.15     2.42     1  09:25      0.0138       0.214       0.088
  1094                 JUNCTION      0.52   253.64     1  11:32      0.0408        19.9       0.125
  1103                 JUNCTION      0.06     0.06     1  09:00     0.00478     0.00483       0.099
  1109                 JUNCTION      0.22     0.47     1  02:13      0.0181      0.0392       0.163
  1110                 JUNCTION      0.25     0.67     1  09:18      0.0212      0.0539       0.160
  1130                 JUNCTION      0.00     0.00     0  00:00           0           0       0.000 ltr
  1139                 JUNCTION      0.00     0.04     0  00:00           0    0.000842     818.081 ltr
  1141                 JUNCTION      0.00     0.00     0  00:00           0           0       0.000 ltr
  1221                 JUNCTION      0.27   251.23     1  11:37       0.021        20.2       0.055
  1222                 JUNCTION      0.09   256.62     1  11:48     0.00788        20.6       0.079
  1223                 JUNCTION      0.10     5.12     1  09:45     0.00784       0.403       0.097
  1224                 JUNCTION      0.13     2.48     1  10:31      0.0108      0.0269       0.168
  1225                 JUNCTION      0.16     2.21     1  10:31      0.0137       0.016       0.049
  1231                 JUNCTION      0.00   130.82     1  10:59           0        9.63       0.029
  1232                 JUNCTION      0.00   130.82     1  10:59           0        9.63       0.029
  1929                 JUNCTION      1.17     1.17     1  02:00       0.108       0.109       0.030
  28885                JUNCTION      0.00     0.00     0  00:00           0           0       0.000 ltr
  28887                JUNCTION      0.69     0.69     1  09:00      0.0538      0.0539       0.309
  29699                JUNCTION      0.32     0.32     1  09:00      0.0251      0.0251       0.249
  30369                JUNCTION      0.18    32.27     1  08:10      0.0136         2.3      -0.433
  33275                JUNCTION      0.53     4.57     1  09:59      0.0484       0.371       0.026
  33276                JUNCTION      0.40     4.05     1  09:59      0.0309       0.323       0.138
  33277                JUNCTION      0.30     4.87     1  09:59      0.0274       0.399       0.089
  33489                JUNCTION      0.24     1.31     1  02:54      0.0218       0.121       0.038
  33490                JUNCTION      0.21     1.51     1  08:53       0.019        0.14       0.033
  33645                JUNCTION      0.00     0.00     0  00:00           0           0       0.000 ltr
  35471                JUNCTION      0.42     0.42     1  09:00      0.0326      0.0326       0.108
  35627                JUNCTION      0.36     5.12     1  09:47      0.0279       0.419       0.092
  39977                JUNCTION      0.19     3.96     1  10:00      0.0155       0.313       0.147
  40887                JUNCTION      0.84     0.84     1  09:00       0.065       0.065       0.176
  46262                JUNCTION      0.37     0.37     1  09:00      0.0288      0.0288       0.131
  46699                JUNCTION      0.27     7.94     1  03:10      0.0207       0.104       0.874
  46700                JUNCTION      0.48     1.02     1  09:23      0.0372      0.0799       0.183
  46701                JUNCTION      0.54     0.54     1  09:00      0.0425      0.0426       0.081
  47739                JUNCTION      0.40     2.78     1  09:54      0.0313       0.221       0.029
  47756                JUNCTION      0.57     2.38     1  09:54      0.0494        0.19       0.110
  48123                JUNCTION      0.11     0.35     1  09:21     0.00823      0.0276       0.078
  48124                JUNCTION      0.25     0.25     1  09:00      0.0193      0.0194       0.069
  50929                JUNCTION      0.20   260.36     1  11:40      0.0164        20.8       0.140
  50967                JUNCTION      0.26     0.26     1  02:00      0.0256      0.0258       0.067
  50968                JUNCTION      0.10     0.36     1  21:32      0.0101       0.036       0.119
  50969                JUNCTION      0.09     0.45     1  21:22       0.009      0.0451       0.201
  51650                JUNCTION      0.10     1.62     1  09:00     0.00808       0.133       0.127
  52413                JUNCTION      0.30     0.30     1  09:00      0.0233      0.0233       0.164
  52414                JUNCTION      0.41     0.71     1  09:45      0.0323      0.0557       0.199
  52415                JUNCTION      0.16     1.77     1  09:59      0.0129       0.139       0.095
  52416                JUNCTION      0.23     2.00     1  09:54       0.018       0.157       0.137
  52417                JUNCTION      0.38     2.37     1  09:56      0.0294       0.186       0.189
  52418                JUNCTION      0.39     3.06     1  09:58      0.0312       0.241       0.164
  52419                JUNCTION      0.29     0.29     1  02:00      0.0234      0.0235       0.329
  52736                JUNCTION      0.26     0.55     1  09:52      0.0207       0.043       0.050
  52737                JUNCTION      0.29     0.29     1  09:00      0.0223      0.0224       0.175
  53532                JUNCTION      0.28     5.92     1  09:49       0.026       0.492       0.142
  53534                JUNCTION      0.22     0.22     1  02:00      0.0204      0.0205       0.387
  54034                JUNCTION      0.00    10.60     1  09:58    3.77e-05        0.86       0.015
  54035                JUNCTION      0.43     4.20     1  09:59      0.0366       0.346       0.069
  54036                JUNCTION      0.37     0.37     1  09:00      0.0285      0.0285       0.101
  54037                JUNCTION      0.66     3.41     1  09:56      0.0563       0.281       0.097
  54038                JUNCTION      0.51     1.45     1  09:41      0.0394       0.112       0.082
  54039                JUNCTION      0.94     0.94     1  09:00      0.0731      0.0731       0.208
  54040                JUNCTION      1.30     1.30     1  02:00       0.112       0.112       0.216
  54171                JUNCTION      0.72     0.72     1  09:00      0.0558      0.0559       0.168
  54172                JUNCTION      0.26     1.34     1  09:53      0.0202       0.104       0.080
  54174                JUNCTION      0.62     1.96     1  09:37      0.0573       0.162       0.258
  54500                JUNCTION      0.71     8.75     1  09:54      0.0554       0.723       0.070
  54529                JUNCTION      0.22     0.22     1  02:00      0.0191      0.0191       0.099
  54530                JUNCTION      0.44     0.66     1  09:48      0.0341      0.0532       0.158
  54531                JUNCTION      1.21     1.87     1  09:45       0.104       0.158       0.202
  54532                JUNCTION      1.27     5.76     1  09:59      0.0989       0.459       0.011
  54533                JUNCTION      1.29     2.62     1  09:32         0.1       0.203       0.181
  54534                JUNCTION      1.33     1.33     1  09:00       0.103       0.103       0.094
  56524                JUNCTION      0.00     0.03     1  19:18           0      0.0013    1298.066 ltr
  57317                JUNCTION      0.57     0.57     1  09:00      0.0444      0.0445       0.095
  57318                JUNCTION      0.31     0.87     1  09:33      0.0238      0.0684       0.127
  57319                JUNCTION      0.18     9.18     1  09:56      0.0141       0.593       0.170
  58055                JUNCTION      0.16     0.71     1  09:52      0.0128      0.0563       0.143
  58056                JUNCTION      0.16     0.55     1  09:49      0.0127      0.0435       0.104
  58057                JUNCTION      0.23     0.39     1  09:58      0.0186      0.0308       0.085
  58058                JUNCTION      0.16     0.16     1  09:00      0.0122      0.0122       0.207
  59035                JUNCTION      0.37     0.37     1  09:00      0.0285      0.0285       0.157
  60231                JUNCTION      0.18     0.64     1  02:27      0.0156      0.0548       0.114
  60232                JUNCTION      0.45     0.45     1  02:00       0.039      0.0392       0.086
  60464                JUNCTION      0.00     0.00     0  00:00           0           0       0.000 ltr
  60503                JUNCTION      0.00     0.00     0  00:00           0           0       0.000 ltr
  61724                JUNCTION      0.01    63.56     1  10:21    0.000621        4.93       0.015
  61733                JUNCTION      0.18     0.55     1  09:00       0.014       0.048       1.650
  61736                JUNCTION      0.46     3.65     1  09:58      0.0356       0.292       0.065
  61737                JUNCTION      0.62     3.19     1  09:58      0.0486       0.257       0.110
  61738                JUNCTION      0.60     2.57     1  09:59      0.0469       0.209       0.112
  61839                JUNCTION      0.00     0.00     0  00:00           0           0       0.000 ltr
  62021                JUNCTION      0.10     7.80     1  10:00     0.00794       0.622       0.096
  62379                JUNCTION      0.52     0.52     1  09:00      0.0406      0.0407       1.275
  62386                JUNCTION      0.29   257.41     1  11:37      0.0225        20.6       0.094
  62387                JUNCTION      0.39     1.08     1  21:47      0.0301      0.0703       1.415
  62396                JUNCTION      0.23   129.87     1  11:41      0.0193        11.1       0.103
  62397                JUNCTION      0.35     0.62     1  11:35      0.0296      0.0298       0.409
  6249                 JUNCTION      0.32     0.99     1  08:52      0.0257      0.0812       0.135
  6250                 JUNCTION      0.03     0.20     1  09:00     0.00202      0.0189       0.440
  6318                 JUNCTION      0.24     3.49     1  09:00      0.0184       0.284       0.423
  6319                 JUNCTION      0.16     4.13     1  09:00      0.0123       0.333       0.059
  6320                 JUNCTION      0.23     0.48     1  08:39      0.0187      0.0384       0.349
  6321                 JUNCTION      0.25     0.25     1  09:00      0.0197      0.0197       0.150
  6324                 JUNCTION      0.54     0.54     1  02:00      0.0428      0.0428       0.240
  6365                 JUNCTION      0.09   119.35     1  10:21     0.00766        9.82       0.016
  6366                 JUNCTION      0.23     4.36     1  09:00      0.0198       0.353       0.285
  6367                 JUNCTION      0.16    51.38     1  02:05      0.0133        4.39       0.090
  6368                 JUNCTION      0.10    53.02     1  02:06     0.00982        4.54       0.050
  6369                 JUNCTION      0.22    63.55     1  10:20      0.0172        4.93       0.105
  6370                 JUNCTION      0.05    66.23     1  10:20     0.00426        5.08       0.046
  6371                 JUNCTION      0.29    63.33     1  10:20      0.0283        4.92       0.043
  6372                 JUNCTION      0.22     3.63     1  09:02      0.0174       0.302       0.176
  6373                 JUNCTION      0.34     0.70     1  08:41      0.0273      0.0561       0.319
  6391                 JUNCTION      0.70     0.70     1  02:00      0.0555      0.0556       0.345
  6417                 JUNCTION      0.76    39.75     1  10:44      0.0592        3.21       0.066
  6418                 JUNCTION      0.57    42.81     1  10:44      0.0445        3.46       0.045
  6419                 JUNCTION      0.57    77.75     1  09:51      0.0491        6.32       0.007
  6420                 JUNCTION      0.49    34.38     1  09:27      0.0385        2.81       0.021
  6421                 JUNCTION      0.71    24.85     1  09:25      0.0549        2.04       0.083
  6422                 JUNCTION      0.68    16.00     1  09:24      0.0585        1.31       0.085
  6423                 JUNCTION      0.54    18.63     1  09:24      0.0464        1.54       0.141
  6424                 JUNCTION      0.69    12.79     1  19:50      0.0589       0.816      -0.126
  6426                 JUNCTION      1.06    22.80     1  08:53      0.0911       0.755      -0.228
  6427                 JUNCTION      0.72    36.04     1  09:17      0.0561       0.711      -5.731
  6428                 JUNCTION      0.00    12.24     1  11:36           0      0.0765      -1.274
  6429                 JUNCTION      0.85     0.85     1  02:00      0.0732      0.0735       0.179
  6430                 JUNCTION      0.32     0.32     1  09:00      0.0248      0.0249       0.142
  6431                 JUNCTION      0.22     0.22     1  02:00      0.0175      0.0175       0.147
  6432                 JUNCTION      0.36     0.58     1  09:00      0.0277      0.0453       0.228
  6433                 JUNCTION      0.22     0.79     1  09:59      0.0169      0.0621       0.093
  6434                 JUNCTION      0.14     2.49     1  10:00      0.0111       0.195       0.072
  6435                 JUNCTION      0.35     2.84     1  10:00      0.0276       0.222       0.127
  6436                 JUNCTION      0.30     3.69     1  10:00      0.0242       0.289       0.139
  6437                 JUNCTION      0.10     7.83     1  10:00     0.00806       0.612       0.050
  6438                 JUNCTION      0.21     3.89     1  10:00      0.0162       0.305       0.051
  6439                 JUNCTION      0.28     3.84     1  10:00       0.022         0.3       0.153
  6440                 JUNCTION      0.29     3.55     1  10:00      0.0228       0.278       0.064
  6441                 JUNCTION      0.47     0.76     1  09:00      0.0365      0.0595       0.209
  6442                 JUNCTION      0.29     0.29     1  02:00      0.0229      0.0229       0.261
  6443                 JUNCTION      0.14     3.94     1  09:58      0.0111       0.308       0.046
  6444                 JUNCTION      0.36     4.31     1  09:58      0.0283       0.336       0.190
  6445                 JUNCTION      0.46     2.50     1  09:50      0.0359       0.195       0.138
  6446                 JUNCTION      0.28     3.80     1  09:59      0.0219       0.297       0.078
  6447                 JUNCTION      0.61     2.04     1  09:41      0.0478        0.16       0.177
  6448                 JUNCTION      0.20     1.43     1  09:09      0.0158       0.112       0.150
  6449                 JUNCTION      0.99     0.99     1  09:00      0.0769      0.0771       0.040
  6525                 JUNCTION      1.48     1.48     1  02:00       0.127       0.128       0.127
  6553                 JUNCTION      0.61     0.61     1  02:00      0.0557      0.0561       0.226
  6554                 JUNCTION      0.20     1.24     1  02:59      0.0184       0.115       0.173
  6555                 JUNCTION      0.43     1.04     1  02:58      0.0398       0.096       0.032
  6557                 JUNCTION      0.49     0.49     1  02:00       0.038       0.038       0.268
  6559                 JUNCTION      0.28     0.77     1  09:07       0.022      0.0599       0.087
  6560                 JUNCTION      0.28    11.97     1  09:56      0.0221       0.994       0.074
  6561                 JUNCTION      0.65     9.40     1  09:55      0.0507       0.773       0.160
  6563                 JUNCTION      0.92     8.04     1  09:51      0.0713       0.668       0.120
  6564                 JUNCTION      0.82     7.12     1  09:50      0.0754       0.597       0.070
  6565                 JUNCTION      0.39     6.30     1  09:49      0.0301       0.522       0.060
  6566                 JUNCTION      0.29     5.41     1  09:48       0.027       0.446       0.058
  6567                 JUNCTION      0.15     4.76     1  09:54      0.0114       0.391       0.052
  6568                 JUNCTION      0.79     1.73     1  09:46      0.0613       0.135       0.169
  6569                 JUNCTION      0.95     0.95     1  09:00      0.0736      0.0737       0.125
  6574                 JUNCTION      1.41     1.41     1  02:00       0.121       0.122       0.246
  6575                 JUNCTION      0.29     0.60     1  09:23      0.0224      0.0467       0.380
  6576                 JUNCTION      0.31     0.31     1  09:00      0.0243      0.0243       0.088
  6587                 JUNCTION      0.34     3.00     1  10:00      0.0269       0.256       0.236
  6588                 JUNCTION      0.13     4.10     1  10:00      0.0104       0.354       0.208
  6593                 JUNCTION      0.58     1.29     1  11:33      0.0452      0.0453       0.174
  6594                 JUNCTION      0.00   343.27     1  10:57           0        16.4      -0.570
  6595                 JUNCTION      0.29     5.94     1  10:59      0.0226       0.201       0.436
[...]
  F59535                  1.00   0.00  0.01  0.00  0.99  0.00  0.00  0.00  0.38  0.00
  F60236B                 1.58   0.01  0.00  0.00  0.99  0.00  0.00  0.00  0.44  0.00
  F60367                  1.00   0.00  0.00  0.00  0.98  0.00  0.00  0.01  0.01  0.00
  F60441                  2.14   0.01  0.00  0.00  0.98  0.01  0.00  0.00  0.02  0.00
  F60630BR                1.13   0.00  0.00  0.00  1.00  0.00  0.00  0.00  0.00  0.00
  F60630R                 1.25   0.00  0.00  0.00  0.98  0.02  0.00  0.00  0.01  0.00
  F83988R                 3.01   0.01  0.00  0.00  0.99  0.00  0.00  0.00  0.00  0.00
  F9220R                  3.14   0.00  0.01  0.00  0.99  0.00  0.00  0.00  0.00  0.00
  F9224                   1.00   0.01  0.00  0.00  0.21  0.00  0.00  0.78  0.19  0.00
  F9284ETR                1.00   0.00  0.00  0.00  1.00  0.00  0.00  0.00  0.03  0.00
  F9309                   1.00   0.00  0.00  0.00  0.95  0.05  0.00  0.00  0.01  0.00
  F94700LANE              1.00   0.04  0.00  0.00  0.00  0.00  0.00  0.96  0.00  0.00
  F99529                  1.00   0.01  0.00  0.00  0.98  0.01  0.00  0.00  0.46  0.00
  NAB_RES                 1.00   0.00  0.00  0.00  1.00  0.00  0.00  0.00  0.74  0.00
  NAB_RR                  1.00   0.00  0.00  0.00  1.00  0.00  0.00  0.00  1.00  0.00
  NANBTOMCL               1.00   0.00  0.00  0.00  0.00  0.00  0.00  1.00  0.00  0.00
  
  
  *************************
  Conduit Surcharge Summary
  *************************
  
  ----------------------------------------------------------------------------
                                                           Hours        Hours 
                         --------- Hours Full --------   Above Full   Capacity
  Conduit                Both Ends  Upstream  Dnstream   Normal Flow   Limited
  ----------------------------------------------------------------------------
  11713                       0.01      0.01      6.42      0.01         0.01
  11714                      19.11     19.19     19.11     20.40        19.11
  11736                       0.01      0.01     36.04      0.01         0.01
  11753                       0.01      0.01      0.59      0.01         0.01
  11754                       0.59      0.59     18.48      0.01         0.01
  11755                      18.48     18.48     19.62      0.01         0.01
  11756                      19.62     19.62     19.95      0.01         0.01
  11758                       0.01      0.01     15.59      0.01         0.01
  11788                       0.01     11.91      0.01     17.95         0.01
  11789                      10.53     14.51     10.53     17.48        10.50
  11809                      20.50     20.60     20.50     20.88        20.44
  11810                      20.06     20.50     20.06     20.92        20.06
  11811                      20.37     20.37     20.78      0.01         0.01
  11812                      20.37     20.37     20.60     20.44        20.37
  11813                      20.57     20.57     20.78     20.72        20.56
  11814                      20.29     20.29     20.57     14.03        12.04
  11815R                     19.88     19.88     20.26      0.01         0.01
  11816R                      4.15      4.15     19.88      0.01         0.01
  11817R                      0.01      0.01      4.15      0.01         0.01
  11832                       6.95      6.95     20.35      0.01         0.01
  11833                      19.90     20.35     19.90     20.77        19.89
  11834                       0.01      0.01     19.66      0.01         0.01
  11835                       0.01     19.90      0.01     20.44         0.01
  11836                       0.01      0.01      0.01     21.09         0.01
  11837                      12.15     15.16     12.19     16.04        12.10
  11840                      12.19     12.19     15.70      0.49         3.44
  11878                       0.01      0.01     16.80      0.01         0.01
  11880                      18.88     18.88     20.06      0.01         0.01
  11881                      20.06     20.06     20.53      0.01         0.01
  11912                       0.01      0.01     20.40      0.01         0.01
  11913                      19.55     19.61     19.55     20.16        19.55
  11914                      19.57     19.67     19.57     20.28        19.48
  11915                       8.18     10.53      8.18     16.56         8.18
  11917                       0.01      0.01     10.72      0.01         0.01
  11938                       0.01      0.03      0.02      0.21         0.01
  12092                       0.01      0.01      6.82      0.01         0.01
  12209                      10.87     19.30     10.87     20.42        10.87
  12210                       0.01      0.01      0.01     19.72         0.01
  12220R                     20.77     20.78     20.77     20.82        18.60
  12221R                     20.46     20.77     20.46     21.11        20.46
  12222R                     20.54     20.54     20.78     19.77        19.61
  12223R                     20.32     20.32     20.54      0.01         0.01
  12224R                     20.05     20.05     20.32      0.01         0.01
  12225R                     19.39     19.39     20.05      0.01         0.01
  12226R                      3.98      3.98     19.39      0.01         0.01
  12227                       0.01      0.01      5.55      0.01         0.01
  12231R                      0.01      0.01      3.98      0.01         0.01
  12242                       1.82      1.82     16.95      0.01         0.01
  12243                       0.01      0.01      1.82      0.01         0.01
  12268                      14.39     14.39     19.47      0.01         0.01
  12269                      19.46     19.47     19.46     20.37        10.32
  12270                      19.32     19.46     19.32     20.07        19.32
  12271                      19.29     19.52     19.29     20.38        19.29
  12310                      16.94     16.94     19.29      0.01         0.01
  12404                       0.01      0.01     10.78      0.01         0.01
  12428                       6.82      6.82     17.58      0.12         0.13
  12431                       0.01      0.01      1.09      0.01         0.01
  12433                      17.58     17.58     19.75      1.99         3.95
  12434                      19.75     19.75     20.12      0.24         0.21
  12435                      19.93     20.12     19.93     21.31        19.93
  12436                      19.93     19.93     21.14     17.38        17.29
  12448                       0.01      0.01      8.23      0.01         0.01
  12449                       8.23      8.23     18.66      0.01         0.01
  12470                       0.01      0.01     14.76      0.01         0.01
  12471                      19.21     19.21     19.26     18.64        18.02
  12472                       0.33      0.33      2.02      0.01         0.01
  12473                       0.01      0.01      0.33      0.01         0.01
  12476                       0.01      0.01     14.39      0.01         0.01
  12509                       0.01      0.01     11.27      0.01         0.01
  12575                       0.01      0.01     20.37      0.01         0.01
  12599R                      0.01      0.01      0.01     21.05         0.01
  12600                       0.01      0.01     21.59      0.01         0.01
  12612                       0.01      0.01     20.82      0.01         0.01
  12616MCLINR                 0.01      0.01     46.00      0.01         0.01
  12617                       0.01     20.82      0.01     21.20         0.01
  12679                       0.01      0.01     16.95      0.01         0.01
  12708                       0.01      0.01     18.76      0.01         0.01
  12709                      18.91     18.91     19.57      0.01         0.01
  12710                      19.57     19.57     20.92      0.01         0.01
  12711                      19.36     19.36     20.92      0.01         0.01
  12712                       0.01      0.01     19.36      0.01         0.01
  12779                       0.03      0.21      0.03      0.33         0.03
  12780                       0.01      0.01      0.21      0.01         0.01
  12940                      16.98     16.98     19.74      0.01         0.01
  12941                       0.01      3.98      0.01     20.46         0.01
  12943                       3.98     10.87      3.98     20.45         3.98
  12946                      19.76     19.76     20.57      0.01         0.01
  12948                      19.76     19.96     19.76     20.75        19.17
  12949                      19.84     19.84     19.96      0.40         0.01
  12951                      19.84     19.87     19.84      1.16         0.30
  12954                      19.81     19.81     19.87      0.82         0.01
  12955                      15.54     15.54     19.81      0.01         0.01
  12960                      15.54     19.83     15.54     20.96        15.54
  12961                      19.83     19.84     19.83      0.79         0.01
  12962                       0.01      0.01     19.84      0.01         0.01
  12984                      14.76     14.76     14.90      0.01         0.01
  12985                      19.21     19.23     19.21     20.34        19.20
  12987                       0.01      0.01      0.75      0.01         0.01
  12988                       0.01      0.01     14.76      0.01         0.01
  13019                      14.20     19.57     14.20     20.14        14.20
  13021                       0.01     17.12      0.01     20.10         0.01
  13023ONE                    0.01      0.01      0.01     20.00         0.01
  13127                      20.10     20.10     20.42      0.01         0.01
  13128                       0.01      0.01     19.93      0.01         0.01
  13275                       0.37      0.37     14.62      0.01         0.01
  13277                       0.01      0.01      0.04      0.01         0.01
  13285                       0.01      0.01     20.46      0.01         0.01
  13286                      19.54     19.54     19.57      0.01         0.33
  13287                      19.29     19.29     19.45      0.01         5.28
  13288                      19.51     19.54     19.51     20.16        19.51
  13293                      19.72     19.72     19.99      0.01         0.01
  13294                      19.99     19.99     20.06      0.01         0.13
  13295                      19.15     19.15     19.72      0.01         0.01
  13296                       1.57      1.57     18.66      0.01         0.01
  13297                       0.01      0.01      1.57      0.01         0.01
  13324                      19.27     19.31     19.27     20.23        19.27
  13334                      18.96     18.96     19.18      0.01         0.01
  13335                      20.26     20.26     44.71      0.01         0.01
  13337                      20.26     20.26     44.71      0.01         0.01
  13398R                      0.01      0.01      0.01     20.37         0.01
  31271                       0.01      0.01     20.91      0.01         0.01
  33282                       0.01      0.01      4.96      0.01         0.01
  50928                       0.01      0.01     18.28      0.01         0.01
  50930                      18.28     18.28     18.78      0.01         0.01
  58315                       0.01      0.01      0.01      0.71         0.01
  60372                      15.11     15.11     15.16      0.01         7.34
  60727                      18.67     18.67     19.55      0.01         0.01
  61813                      18.79     18.79     19.33      0.01         0.01
  62393                      19.71     19.71     20.18      0.01         0.01
  62395                       4.21      4.21     19.51      0.01         0.01
  62398                       0.01      0.01     19.73      0.01         0.01
  62463                      19.49     19.51     19.49     20.28        19.34
  62464                      19.49     19.49     19.53      0.01         1.71
  62465                      19.53     19.53     19.55      8.34         8.60
  71260R                     20.51     20.51     20.63     20.36        20.37
  71261R                     20.63     20.63     20.63     20.93        20.63
  71262R                     20.63     20.63     20.71     20.74        20.63
  72227                       0.01      0.01     46.00      0.01         0.01
  73014R                      0.01     20.71      0.01     21.29         0.01
  79282                      20.57     20.57     20.64      0.01         0.37
  79285                      21.41     21.41     21.54      0.01         0.04
  9214                        0.01      0.01      0.01     19.61         0.01
  9216                        5.53     19.74      5.53     20.57         5.53
  9217                        2.91      5.53      2.91     20.64         2.91
  9283BWPSINR                 0.01      0.01      0.15      0.01         0.01
  9285R                       0.01      0.01      0.01     21.41         0.01
  9290                        0.01      0.01      0.01      9.04         0.01
  9294                        0.01      0.01      4.48      0.33         0.01
  9303                        0.01      0.01      6.95      0.01         0.01
  9468                        0.01      0.01      0.01      0.01         0.01
  9471                       21.53     21.53     33.14      0.01         0.01
  9472                       33.14     33.14     40.97      0.01         0.16
  9473R                       0.01      0.01      0.21      0.01         0.01
  9474R                       0.21      0.21      0.77      0.01         0.01
  9475                       14.62     14.62     14.95      0.01         0.01
  9476R                       0.77      0.77     10.62      0.01         0.01
  9481                        1.91     15.70      1.91     17.66         1.89
  9484                       16.74     16.74     17.53      0.01         0.01
  9486                       19.04     19.04     21.78      0.01         0.01
  9487                       19.04     19.04     21.78      0.01         0.01
  9489OBG&D                  12.85     12.85     13.08      0.02         0.22
  9491                       11.00     11.00     11.34      0.01         1.65
  9492                       11.34     11.34     12.85      0.01         0.02
  9493                        8.38      8.38     11.00      0.01         0.01
  9495                        9.11      9.11     14.00      0.01         0.01
  9496                        0.01      0.01      3.80      0.01         0.01
  9499                       44.50     44.50     44.71      0.01         0.01
  9500                       44.50     44.50     44.71      0.01         0.01
  9501                       44.35     44.35     44.50      0.01         0.01
  9502                       44.35     44.35     44.50      0.01         0.01
  9503                       29.67     29.67     44.35      0.01         0.01
  9504                       29.62     29.62     44.35      0.01         0.01
  9505                       21.78     21.78     29.67      0.01         0.08
  9506                       21.78     21.78     29.62      0.01         0.09
  CDT-12691                   0.01      4.48      0.01      4.63         0.01
  F11940R                     0.04      0.04     44.62     18.13         0.01
  F12353                     15.17     43.97     15.17     14.75         0.48
  F12354                     13.56     13.56     43.97      0.01         0.01
  F12440                     45.02     45.02     45.15      0.01        24.31
  F12440B                    45.13     45.13     45.14      0.01        16.53
  F12441R                    45.14     45.14     45.15      0.01         0.03
  F12442                     17.74     17.74     45.09     16.55         0.01
  F12614EEP                   0.01     21.25      0.01     21.26         0.01
  F12616                     21.47     21.47     46.00      0.01         0.01
  F12618                     24.13     24.13     45.32      0.25         0.01
  F12620                     24.11     24.13     45.33     23.93         0.08
  F12874                      0.01     21.30      0.01      0.01         0.01
  F59530                     17.49     17.98     18.65     17.97        17.36
  F59531                     18.44     18.65     19.61     17.66        17.72
  F59532                     19.40     19.61     21.01     17.98        17.64
  F59533                     20.93     21.01     21.24     17.33        17.36
  F59534                     20.88     21.24     20.92     17.28        18.43
  F59535                     20.55     20.92     20.57     17.46        17.77
  F60236B                    18.22     18.22     45.61      0.01         0.01
  F60367                     11.20     11.49     44.43      0.01         0.01
  F60441                      5.11      5.30     45.49      4.81         0.01
  F60630BR                   20.70     26.79     20.70      0.01        16.53
  F60630R                    26.57     26.78     45.20      0.01         0.06
  F83988R                    45.32     45.32     45.32      0.01         0.01
  F9220R                     45.28     45.32     45.32      0.01         0.01
  F9224                       4.17      4.22      4.32      4.23         4.12
  F9284ETR                   19.40     19.40     44.65     19.26        18.88
  F9309                       0.01      0.01      5.49      5.39         0.01
  F94700LANE                  0.01     13.58      0.01     13.57         0.01
  F99529                     17.88     18.22     18.32     18.14        17.46
  
  
  ***************
  Pumping Summary
  ***************
  
  ---------------------------------------------------------------------------------------------------------
                                                  Min       Avg       Max     Total     Power    % Time Off
                        Percent   Number of      Flow      Flow      Flow    Volume     Usage    Pump Curve
  Pump                 Utilized   Start-Ups       LPS       LPS       LPS  10^6 ltr     Kw-hr    Low   High
  ---------------------------------------------------------------------------------------------------------
  BUDE                    12.99         301      0.00     15.56     25.00     0.335      4.27    0.0    0.1
  BUDWBR2                  3.91          32      0.00     47.25    126.32     0.312     13.99    0.0    0.0
  BUDWR2                  44.75         294      0.00     80.08    110.51     6.000    182.94    0.0    0.0
  CLEABR                  38.85         132      0.00     13.78     48.00     0.857     50.32    0.0    0.0
  COLN                    98.59           1      0.00      2.43      4.61     0.380      1.80    0.0    0.0
  ENDE                    11.18         390      0.00     32.47     45.00     0.602     11.05    0.0    0.0
  GASC                    52.86          47      0.00     15.75     30.39     1.379     20.73    0.0    0.0
  GASCB                   35.93          32      0.00     14.75     15.96     0.876     13.74    0.0    0.0
  LANE                    31.96         109      0.00      9.28     20.00     0.491      5.71    0.0    0.0
  LANEB                    0.00           0      0.00      0.00      0.00     0.000      0.00    0.0    0.0
  MCLAR                  100.00           0      0.00     42.38     82.24     6.759     82.19    0.0    0.0
  NELSBR                   0.54           7      0.00    109.45    112.33     0.098      2.39    0.0    0.0
  NELSR                   53.21         136      0.00    110.25    157.14     9.711    235.46    0.0    0.0
  

  Analysis begun on:  Fri Mar  6 15:02:32 2026
  Analysis ended on:  Fri Mar  6 15:04:07 2026
  Total elapsed time: 00:01:35