
  EPA STORM WATER MANAGEMENT MODEL - VERSION 5.2 (Build 5.2.4)
  ------------------------------------------------------------

  WARNING 08: elevation drop exceeds length for Conduit 17-003_17-002
  WARNING 04: minimum elevation drop used for Conduit HemmDrySiphonRace
  WARNING 04: minimum elevation drop used for Conduit HemmWetSiphonRace
  WARNING 02: maximum depth increased for Node 21-074
  
  *************
  Element Count
  *************
  Number of rain gages ...... 4
  Number of subcatchments ... 0
  Number of nodes ........... 361
  Number of links ........... 366
  Number of pollutants ...... 0
  Number of land uses ....... 0
  
  
  ****************
  Raingage Summary
  ****************
                                                      Data       Recording
  Name                 Data Source                    Type       Interval 
  ------------------------------------------------------------------------
  GageRG-01            SCS_10Yr                       VOLUME       5 min.
  GageRG-02            SCS_10Yr                       VOLUME       5 min.
  Huff_(0-10_sq._mi.)_forth_quartile_1.75in Huff_(0-10_sq._mi.)_forth_quartile_1.75in VOLUME       5 min.
  Huff_(0-10_sq._mi.)_forth_quartile_3.52in Huff_(0-10_sq._mi.)_forth_quartile_3.52in VOLUME       5 min.
  
  
  ************
  Node Summary
  ************
                                           Invert      Max.    Ponded    External
  Name                 Type                 Elev.     Depth      Area    Inflow  
  -------------------------------------------------------------------------------
  01-001               JUNCTION            926.63     13.87       0.0
  01-002               JUNCTION            926.90     13.90       0.0    Yes
  01-012               JUNCTION            927.63     15.00       0.0    Yes
  01-013               JUNCTION            927.18     12.62       0.0    Yes
  04-053               JUNCTION            876.11     15.00       0.0    Yes
  04-054               JUNCTION            869.21      8.75       0.0
  04-055               JUNCTION            867.40     15.00       0.0
  05-001               JUNCTION            894.98     18.32       0.0    Yes
  05-002               JUNCTION            899.58     16.52       0.0
  05-003               JUNCTION            902.02     18.78       0.0
  05-004               JUNCTION            903.28     17.72       0.0
  05-005               JUNCTION            904.84     17.86       0.0
  05-006               JUNCTION            913.19     14.21       0.0
  05-007               JUNCTION            917.69     13.51       0.0
  05-008               JUNCTION            922.19     12.51       0.0
  05-009               JUNCTION            907.05     15.00       0.0    Yes
  06-001               JUNCTION            877.87      7.00       0.0
  06-002               JUNCTION            891.46      6.50       0.0
  06-003               JUNCTION            897.28      6.50       0.0
  06-004               JUNCTION            898.74      7.00       0.0    Yes
  07-001               JUNCTION            877.68     15.00       0.0    Yes
  08-001               JUNCTION            852.81      8.19       0.0    Yes
  08-002               JUNCTION            853.75      8.12       0.0
  08-003               JUNCTION            854.05      8.85       0.0
  08-004               JUNCTION            855.05      8.85       0.0
  08-005               JUNCTION            856.67     10.33       0.0    Yes
  08-006               JUNCTION            860.73     12.87       0.0
  08-007               JUNCTION            861.16     12.84       0.0
  08-008               JUNCTION            867.82     18.28       0.0    Yes
  08-009               JUNCTION            868.09     15.00       0.0
  08-010               JUNCTION            868.46     18.04       0.0
  08-011               JUNCTION            873.70     15.00       0.0    Yes
  08-012               JUNCTION            877.41     15.00       0.0
  08-026               JUNCTION            877.93     12.97       0.0    Yes
  08-027               JUNCTION            881.00     12.20       0.0
  08-028               JUNCTION            888.00     14.30       0.0    Yes
  08-034               JUNCTION            891.48     15.92       0.0
  09-001               JUNCTION            938.28     13.40       0.0
  09-002               JUNCTION            939.06     11.50       0.0
  09-006               JUNCTION            940.06     10.90       0.0    Yes
  09-007               JUNCTION            940.70      9.80       0.0
  09-008               JUNCTION            942.04      9.00       0.0
  09-009               JUNCTION            944.58      9.70       0.0
  09-063               JUNCTION            945.26     12.00       0.0
  09-072               JUNCTION            946.15     13.90       0.0
  09-073               JUNCTION            947.02     15.50       0.0
  09-074               JUNCTION            947.84     16.60       0.0
  09-075               JUNCTION            948.26     17.50       0.0
  09-076               JUNCTION            948.59     17.30       0.0    Yes
  09-099               JUNCTION            943.34      9.50       0.0
  09-100               JUNCTION            937.53     15.20       0.0
  11-003               JUNCTION            864.64     11.00       0.0    Yes
  11-004               JUNCTION            864.96     10.00       0.0
  11-005               JUNCTION            865.32      7.08       0.0
  11-006               JUNCTION            865.59      6.81       0.0
  11-007               JUNCTION            865.82      6.58       0.0
  11-008               JUNCTION            866.10      6.80       0.0
  11-009               JUNCTION            866.36      8.04       0.0
  11-010               JUNCTION            866.59      7.50       0.0
  11-012               JUNCTION            866.94      7.36       0.0    Yes
  11-013               JUNCTION            867.22     13.30       0.0
  11-014               JUNCTION            868.45      9.95       0.0    Yes
  11-015               JUNCTION            869.45      9.95       0.0
  11-015A              JUNCTION            869.66      9.24       0.0
  11-016               JUNCTION            870.14      9.76       0.0
  11-017               JUNCTION            883.26      7.42       0.0
  11-018               JUNCTION            897.29     12.61       0.0
  11-019               JUNCTION            898.24     11.16       0.0    Yes
  11-019A              JUNCTION            898.24     11.40       0.0
  11-020               JUNCTION            910.58      7.04       0.0
  11-021               JUNCTION            911.25     12.42       0.0
  11-024               JUNCTION            911.65     12.38       0.0    Yes
  11-031               JUNCTION            914.05     11.31       0.0    Yes
  11-032               JUNCTION            912.91     11.24       0.0
  11-034               JUNCTION            915.06     15.00       0.0
  11-035               JUNCTION            916.15     15.00       0.0
  11-036               JUNCTION            917.13     15.00       0.0
  11-047A              JUNCTION            918.41     10.99       0.0
  11-047B              JUNCTION            917.42     10.00       0.0
  11-047C              JUNCTION            918.85     10.05       0.0    Yes
  11-066               JUNCTION            920.54     10.36       0.0
  11-067               JUNCTION            922.21      9.69       0.0    Yes
  11-068               JUNCTION            923.47      5.93       0.0
  11-069               JUNCTION            924.82      5.58       0.0
  11-070               JUNCTION            925.69      5.71       0.0    Yes
  11-071               JUNCTION            926.70      4.20       0.0
  11-075               JUNCTION            927.45      3.97       0.0    Yes
  11-076               JUNCTION            928.53      7.07       0.0
  11-083               JUNCTION            931.30      8.10       0.0
  11-084               JUNCTION            934.15     15.39       0.0    Yes
  11-109               JUNCTION            936.98     15.40       0.0
  11-110               JUNCTION            939.86     12.20       0.0
  11-111               JUNCTION            942.40     12.00       0.0
  11-112               JUNCTION            943.61     12.50       0.0
  11-113               JUNCTION            945.06     12.50       0.0
  11-114               JUNCTION            946.60     12.25       0.0
  11-115               JUNCTION            948.25     12.25       0.0
  11-116               JUNCTION            951.03     10.50       0.0
  11-117               JUNCTION            952.46      9.50       0.0
  11-121               JUNCTION            954.15      7.60       0.0    Yes
  11-122               JUNCTION            954.91      8.20       0.0
  11-123               JUNCTION            955.66      7.62       0.0
  11-124               JUNCTION            956.27      9.00       0.0
  11-125               JUNCTION            956.90      8.85       0.0    Yes
  11-126               JUNCTION            957.51      6.83       0.0
  11-127               JUNCTION            958.13      7.44       0.0
  11-128               JUNCTION            958.85      5.21       0.0    Yes
  11-129               JUNCTION            959.47      6.00       0.0
  11-130               JUNCTION            960.08      5.00       0.0    Yes
  11-131               JUNCTION            956.50      8.97       0.0
  11-132               JUNCTION            957.56      7.83       0.0    Yes
  11-133               JUNCTION            958.17      7.22       0.0
  12-001               JUNCTION            870.66     10.50       0.0    Yes
  12-003               JUNCTION            871.86      9.85       0.0    Yes
  12-004               JUNCTION            872.80      7.00       0.0    Yes
  13-001               JUNCTION            864.45     12.00       0.0
  13-002               JUNCTION            865.84     13.90       0.0
  13-007               JUNCTION            866.46     13.10       0.0
  13-008               JUNCTION            867.09     10.75       0.0    Yes
  13-010               JUNCTION            867.32     21.00       0.0
  13-014               JUNCTION            868.05     21.00       0.0
  13-015               JUNCTION            870.19     20.00       0.0
  13-016               JUNCTION            872.77     20.00       0.0    Yes
  13-021               JUNCTION            867.87      7.50       0.0    Yes
  13-047               JUNCTION            868.70     15.00       0.0
  13-070               JUNCTION            869.51     15.00       0.0
  13-071               JUNCTION            869.85     15.00       0.0    Yes
  13-123               JUNCTION            867.57     15.00       0.0
  14-001               JUNCTION            857.35     12.00       0.0
  14-002               JUNCTION            858.06     12.01       0.0
  14-003               JUNCTION            858.78      9.00       0.0    Yes
  14-007               JUNCTION            858.90      7.65       0.0
  14-008               JUNCTION            860.04      9.00       0.0
  14-009               JUNCTION            860.22      8.90       0.0
  14-021               JUNCTION            860.85      8.00       0.0
  14-022               JUNCTION            860.99      5.40       0.0    Yes
  14-036               JUNCTION            862.57      8.00       0.0
  14-038               JUNCTION            863.82     11.70       0.0
  14-039               JUNCTION            863.90      7.50       0.0
  14-041               JUNCTION            864.00      7.50       0.0
  14-047               JUNCTION            863.37     10.00       0.0
  15-001               JUNCTION            856.06     13.20       0.0    Yes
  15-002               JUNCTION            857.88     11.60       0.0
  15-004               JUNCTION            859.03     13.80       0.0
  15-005               JUNCTION            861.75     12.60       0.0    Yes
  15-039               JUNCTION            853.70     15.15       0.0
  15-040               JUNCTION            852.01     18.09       0.0
  15-041               JUNCTION            851.74     18.76       0.0
  15-042               JUNCTION            851.05     19.95       0.0    Yes
  16-012               JUNCTION            854.85     14.10       0.0
  16-013               JUNCTION            854.69     14.55       0.0
  16-014               JUNCTION            854.54     15.00       0.0    Yes
  16-015               JUNCTION            854.23     14.75       0.0
  16-017               JUNCTION            855.55     13.08       0.0    Yes
  16-018               JUNCTION            856.59     13.86       0.0
  16-036               JUNCTION            855.25     14.16       0.0
  16-058               JUNCTION            833.06     29.15       0.0    Yes
  16-058A              JUNCTION            849.03     15.47       0.0
  16-059               JUNCTION            849.18     19.82       0.0
  16-060               JUNCTION            849.84     20.46       0.0
  16-061               JUNCTION            850.08     20.42       0.0
  16-062               JUNCTION            832.97     19.03       0.0
  17-001               JUNCTION            833.86     22.14       0.0
  17-002               JUNCTION            834.74     22.46       0.0
  17-003               JUNCTION            858.67     15.00       0.0    Yes
  17-023               JUNCTION            835.44     22.26       0.0    Yes
  17-023a              JUNCTION            835.51     22.49       0.0
  17-024               JUNCTION            835.35     21.65       0.0
  17-025               JUNCTION            835.95     22.85       0.0
  17-043               JUNCTION            836.04     21.96       0.0    Yes
  17-044               JUNCTION            836.15     24.05       0.0
  17-045               JUNCTION            836.21     16.69       0.0
  18-029               JUNCTION            864.12     12.28       0.0
  18-030               JUNCTION            863.78     12.00       0.0    Yes
  18-031               JUNCTION            863.38     11.02       0.0    Yes
  18-033               JUNCTION            863.16     11.74       0.0    Yes
  18-034               JUNCTION            862.46     16.94       0.0
  18-035               JUNCTION            868.44      5.05       0.0
  18-036               JUNCTION            864.43      8.45       0.0
  18-037               JUNCTION            862.26     10.62       0.0
  18-038               JUNCTION            862.13      9.27       0.0
  18-039               JUNCTION            862.08      8.50       0.0    Yes
  18-039A              JUNCTION            864.40      6.50       0.0
  18-040               JUNCTION            861.64      7.70       0.0
  18-041               JUNCTION            861.17      6.00       0.0
  18-042               JUNCTION            860.72      9.00       0.0
  18-043               JUNCTION            860.26      7.54       0.0
  18-046               JUNCTION            863.33      9.25       0.0
  18-079               JUNCTION            864.04     12.00       0.0
  18-082               JUNCTION            864.17     12.00       0.0
  18-083               JUNCTION            864.33      7.00       0.0
  18-088               JUNCTION            863.85     12.00       0.0
  18-097               JUNCTION            863.73     12.00       0.0
  18-098               JUNCTION            863.56     12.00       0.0
  18-099               JUNCTION            862.81     12.59       0.0
  19-074               JUNCTION            832.69     17.81       0.0
  19-074B              JUNCTION            832.42      2.75       0.0
  19-074C              JUNCTION            832.20      2.75       0.0
  19-075               JUNCTION            832.13     15.87       0.0    Yes
  19-076               JUNCTION            831.55     15.95       0.0    Yes
  19-077               JUNCTION            830.94     16.12       0.0
  19-078               JUNCTION            830.79     20.27       0.0
  19-079               JUNCTION            830.57     22.20       0.0
  19-080               JUNCTION            830.22     25.16       0.0
  19-081               JUNCTION            829.75     23.80       0.0
  19-082               JUNCTION            831.29     15.27       0.0
  20-039               JUNCTION            925.27     15.00       0.0
  20-040               JUNCTION            926.03     15.00       0.0
  20-041               JUNCTION            927.25     15.00       0.0
  20-042               JUNCTION            928.19     15.00       0.0
  20-043               JUNCTION            933.68     15.00       0.0
  20-044               JUNCTION            936.82     15.00       0.0
  20-045               JUNCTION            937.50     15.20       0.0
  20-083               JUNCTION            917.88     15.00       0.0
  20-084               JUNCTION            920.45     16.10       0.0    Yes
  20-085               JUNCTION            921.85     15.00       0.0
  20-086               JUNCTION            923.75     15.00       0.0
  21-027A              JUNCTION            856.86     15.00       0.0
  21-048               JUNCTION            850.37     10.20       0.0    Yes
  21-070               JUNCTION            843.18     11.05       0.0
  21-071               JUNCTION            842.58     11.48       0.0
  21-072               JUNCTION            842.28      7.92       0.0    Yes
  21-073               JUNCTION            841.70     13.40       0.0
  21-073A              JUNCTION            842.20      7.98       0.0
  21-074               JUNCTION            841.26     13.06       0.0
  21-074A              JUNCTION            841.42     10.59       0.0
  21-076               JUNCTION            843.81     11.15       0.0
  21-078               JUNCTION            850.24     10.22       0.0
  22-001               JUNCTION            853.13     11.10       0.0    Yes
  22-020               JUNCTION            854.58     10.60       0.0
  22-026               JUNCTION            856.50     10.20       0.0
  22-036               JUNCTION            857.42      9.40       0.0    Yes
  22-038               JUNCTION            856.02     10.00       0.0
  22-048               JUNCTION            858.23      9.50       0.0    Yes
  23-001               JUNCTION            849.50     15.05       0.0
  23-001A              JUNCTION            839.43     22.00       0.0
  23-002               JUNCTION            853.61     14.35       0.0    Yes
  23-003               JUNCTION            853.80     11.00       0.0
  23-004               JUNCTION            854.00     10.16       0.0
  23-005               JUNCTION            854.62      9.75       0.0    Yes
  23-006               JUNCTION            854.94      8.30       0.0    Yes
  23-007               JUNCTION            855.81      5.80       0.0
  23-008               JUNCTION            856.12      5.35       0.0
  23-009               JUNCTION            856.46      8.50       0.0
  23-010               JUNCTION            856.89     11.50       0.0
  23-011               JUNCTION            857.49      6.67       0.0
  23-012               JUNCTION            857.56      8.50       0.0
  23-013               JUNCTION            858.03      8.25       0.0
  23-014               JUNCTION            858.06      8.75       0.0    Yes
  24-001               JUNCTION            838.20     15.00       0.0
  24-002               JUNCTION            826.62     20.00       0.0
  24-003A              JUNCTION            838.49     30.42       0.0
  24-004               JUNCTION            827.46     25.00       0.0
  24-004A              JUNCTION            827.67     29.00       0.0
  24-005               JUNCTION            828.03     30.87       0.0
  24-006               JUNCTION            828.56     28.64       0.0
  24-006A              JUNCTION            828.48      3.50       0.0
  24-008               JUNCTION            841.63     18.57       0.0
  24-009               JUNCTION            846.11     18.89       0.0
  24-010               JUNCTION            854.47     19.73       0.0
  24-011               JUNCTION            862.80     17.59       0.0    Yes
  24-012               JUNCTION            865.70     18.33       0.0
  24-013               JUNCTION            868.55     20.45       0.0    Yes
  24-014               JUNCTION            871.37     16.63       0.0
  24-015               JUNCTION            873.81     21.09       0.0
  24-016               JUNCTION            876.51     19.19       0.0
  24-017               JUNCTION            878.76     18.64       0.0
  24-018               JUNCTION            880.98     20.82       0.0
  24-019               JUNCTION            883.79     23.71       0.0    Yes
  24-020               JUNCTION            886.25     18.75       0.0
  24-021               JUNCTION            888.21     16.39       0.0
  24-022               JUNCTION            890.50     15.90       0.0
  24-044               JUNCTION            845.37     18.63       0.0
  24-045               JUNCTION            855.47     19.63       0.0
  25-001               JUNCTION            892.72     16.98       0.0    Yes
  25-002               JUNCTION            895.13     17.87       0.0
  25-003               JUNCTION            896.91     22.89       0.0
  25-004               JUNCTION            898.84     23.16       0.0
  25-005               JUNCTION            900.61     21.49       0.0
  25-006               JUNCTION            904.00     19.00       0.0
  25-007               JUNCTION            906.71     21.39       0.0
  25-008               JUNCTION            907.78     22.52       0.0
  25-014               JUNCTION            908.80     21.73       0.0    Yes
  25-017               JUNCTION            909.08     24.12       0.0    Yes
  25-019               JUNCTION            909.23     25.57       0.0
  25-025               JUNCTION            909.41     27.69       0.0
  25-033               JUNCTION            909.85     25.05       0.0
  25-034               JUNCTION            910.08     24.82       0.0    Yes
  25-035               JUNCTION            910.46     23.14       0.0
  25-036               JUNCTION            910.95     20.25       0.0
  25-037               JUNCTION            911.41     20.19       0.0
  25-038               JUNCTION            911.83     10.97       0.0
  25-039               JUNCTION            912.21     19.79       0.0
  25-040               JUNCTION            912.47     19.93       0.0
  25-041               JUNCTION            922.85     15.05       0.0    Yes
  25-042               JUNCTION            925.46     19.14       0.0
  25-043               JUNCTION            928.91     21.89       0.0
  25-044               JUNCTION            932.04     24.96       0.0
  25-045               JUNCTION            935.36     24.84       0.0
  25-046               JUNCTION            937.31     20.19       0.0
  25-047               JUNCTION            939.62     13.48       0.0
  25-048               JUNCTION            941.77      9.63       0.0    Yes
  25-049               JUNCTION            942.91      8.09       0.0    Yes
  26-001               JUNCTION            912.66     20.24       0.0    Yes
  26-002               JUNCTION            912.92     20.08       0.0
  26-003               JUNCTION            913.42     17.68       0.0
  26-004               JUNCTION            913.86     19.44       0.0
  26-005               JUNCTION            915.62     20.18       0.0
  26-006               JUNCTION            916.83     23.07       0.0    Yes
  26-007               JUNCTION            917.72     23.58       0.0    Yes
  26-016               JUNCTION            918.82     20.38       0.0    Yes
  26-017               JUNCTION            919.82     23.48       0.0    Yes
  27_022               JUNCTION            840.44     15.00       0.0
  27-001               JUNCTION            837.18     12.52       0.0
  27-003               JUNCTION            837.36     14.94       0.0
  27-004               JUNCTION            839.29     15.00       0.0    Yes
  27-020               JUNCTION            837.96     16.04       0.0    Yes
  27-021               JUNCTION            838.33     20.17       0.0
  27-023               JUNCTION            842.76     15.00       0.0
  27-024               JUNCTION            843.78     15.00       0.0
  27-025               JUNCTION            852.88     15.00       0.0    Yes
  27-026               JUNCTION            854.11     15.00       0.0
  27-027               JUNCTION            855.09     15.00       0.0
  27-028               JUNCTION            859.46     15.00       0.0
  27-029               JUNCTION            861.57     15.00       0.0
  27-030               JUNCTION            869.31     15.00       0.0
  27-031               JUNCTION            877.68     15.00       0.0
  27-032               JUNCTION            881.94     15.00       0.0    Yes
  27-041               JUNCTION            883.98     15.00       0.0
  27-042               JUNCTION            886.65     15.00       0.0
  27-043               JUNCTION            889.45     15.00       0.0
  27-044               JUNCTION            890.62     15.00       0.0
  27-045               JUNCTION            892.04     15.00       0.0
  27-046               JUNCTION            893.92     15.00       0.0
  27-047               JUNCTION            896.02     15.00       0.0    Yes
  CrickParallel        JUNCTION            857.00     25.00       0.0
  DryBarrelNode        JUNCTION            857.00      2.00       0.0
  HemmDryNode1         JUNCTION            832.00      1.00       0.0
  HemmDryNode2         JUNCTION            832.00      1.00       0.0
  HemmWetNode1         JUNCTION            832.00      1.50       0.0
  HemmWetNode2         JUNCTION            832.00      1.50       0.0
  Siphon1-ElbowA       JUNCTION            831.65      2.00       0.0
  Siphon1-ElbowB       JUNCTION            831.63      2.00       0.0
  Siphon2-ElbowA       JUNCTION            831.65      2.00       0.0
  Siphon2-ElbowB       JUNCTION            831.63      2.00       0.0
  WetBarrelNode        JUNCTION            857.00      2.00       0.0
  WI_Par-1             JUNCTION            831.65      5.00       0.0
  WI_Par-2             JUNCTION            831.63      5.00       0.0
  EQMH1                OUTFALL             838.00      0.00       0.0
  HemmRdSSO            OUTFALL             845.00      0.00       0.0
  PiquaSSO             OUTFALL             843.00      0.00       0.0
  WWTP_Effluent        OUTFALL             823.00      6.00       0.0
  18-044               STORAGE             859.90      9.20       0.0
  18-045               STORAGE             859.75      7.40       0.0    Yes
  21-075               STORAGE             839.05     17.29       0.0
  24-003               STORAGE             838.58     17.16       0.0
  24-007               STORAGE             828.89     30.11       0.0    Yes
  EQDivChamb           STORAGE             838.31     19.07       0.0
  HPS_Well             STORAGE             824.50     30.00       0.0
  InfluentBox          STORAGE             838.25     17.75       0.0
  RS_Jun               STORAGE             825.25     19.68       0.0
  
  
  ************
  Link Summary
  ************
  Name             From Node        To Node          Type            Length    %Slope Roughness
  ---------------------------------------------------------------------------------------------
  01-001_05-008    01-001           05-008           CONDUIT          370.0    1.2001    0.0130
  01-002_01-001    01-002           01-001           CONDUIT          275.0    0.0982    0.0130
  01-012_01-013    01-012           01-013           CONDUIT          453.0    0.0993    0.0130
  01-013_01-002    01-013           01-002           CONDUIT          276.0    0.1014    0.0130
  04-053_04-054    04-053           04-054           CONDUIT          192.8    3.4974    0.0130
  04-054_04-055    04-054           04-055           CONDUIT           60.3    3.0048    0.0130
  04-055_18-033    04-055           18-033           CONDUIT           99.6    2.7509    0.0130
  05-001_08-034    05-001           08-034           CONDUIT          350.0    1.0001    0.0130
  05-002_05-001    05-002           05-001           CONDUIT          230.0    2.0004    0.0130
  05-003_05-002    05-003           05-002           CONDUIT          487.0    0.5010    0.0130
  05-004_05-003    05-004           05-003           CONDUIT          253.0    0.4980    0.0130
  05-005_05-004    05-005           05-004           CONDUIT          312.0    0.5000    0.0130
  05-006_05-005    05-006           05-005           CONDUIT          363.0    2.0280    0.0130
  05-007_05-006    05-007           05-006           CONDUIT          375.0    1.2001    0.0130
  05-008_05-007    05-008           05-007           CONDUIT          375.0    1.2001    0.0130
  05-009_05-005    05-009           05-005           CONDUIT          553.0    0.0995    0.0130
  06-001_18-035    06-001           18-035           CONDUIT          214.1    4.4094    0.0130
  06-002_06-001    06-002           06-001           CONDUIT          302.2    4.5012    0.0130
  06-003_06-002    06-003           06-002           CONDUIT          233.0    2.4988    0.0130
  06-004_06-003    06-004           06-003           CONDUIT           58.3    2.5053    0.0130
  07-001_08-012    07-001           08-012           CONDUIT           27.0    1.0001    0.0130
  08-001_23-001    08-001           23-001           CONDUIT          305.0    0.1016    0.0130
  08-002_08-001    08-002           08-001           CONDUIT          285.0    0.1018    0.0130
  08-003_08-002    08-003           08-002           CONDUIT          287.0    0.1045    0.0130
  08-004_08-003    08-004           08-003           CONDUIT           85.0    1.0001    0.0130
  08-005_08-004    08-005           08-004           CONDUIT          158.0    0.9621    0.0130
  08-006_08-005    08-006           08-005           CONDUIT          400.0    1.0151    0.0130
  08-007_08-006    08-007           08-006           CONDUIT           42.6    1.0094    0.0130
  08-008_08-007    08-008           08-007           CONDUIT          539.0    1.0557    0.0130
  08-009_08-008    08-009           08-008           CONDUIT           86.9    0.1957    0.0130
  08-010_08-009    08-010           08-009           CONDUIT          182.6    0.1479    0.0130
  08-011_08-010    08-011           08-010           CONDUIT          400.0    1.0001    0.0130
  08-012_08-011    08-012           08-011           CONDUIT          371.0    1.0001    0.0130
  08-026_08-010    08-026           08-010           CONDUIT          320.4    2.5162    0.0130
  08-027_08-026    08-027           08-026           CONDUIT          307.0    1.0001    0.0130
  08-028_08-027    08-028           08-027           CONDUIT          350.0    2.0004    0.0130
  08-034_08-028    08-034           08-028           CONDUIT          348.0    1.0001    0.0130
  09-001_09-100    09-001           09-100           CONDUIT          206.0    0.3398    0.0130
  09-002_09-001    09-002           09-001           CONDUIT          218.0    0.3578    0.0130
  09-006_09-002    09-006           09-002           CONDUIT          312.0    0.3205    0.0130
  09-007_09-006    09-007           09-006           CONDUIT          108.0    0.5926    0.0130
  09-008_09-007    09-008           09-007           CONDUIT          263.0    0.4715    0.0130
  09-009_09-008    09-099           09-008           CONDUIT          302.0    0.4139    0.0130
  09-009_09-099    09-009           09-099           CONDUIT          281.0    0.4413    0.0130
  09-063_09-009    09-063           09-009           CONDUIT          301.0    0.2259    0.0130
  09-072_09-063    09-072           09-063           CONDUIT          297.0    0.2997    0.0130
  09-073_09-072    09-073           09-072           CONDUIT          299.0    0.2910    0.0130
  09-074_09-073    09-074           09-073           CONDUIT          211.0    0.3886    0.0130
  09-075_09-074    09-075           09-074           CONDUIT          173.0    0.2428    0.0130
  09-076_09-075    09-076           09-075           CONDUIT          166.0    0.1988    0.0130
  09-100_20-045    09-100           20-045           CONDUIT           36.0    0.0833    0.0130
  11-003_18-029    11-003           18-029           CONDUIT          192.0    0.1406    0.0130
  11-004_11-003    11-004           11-003           CONDUIT          225.0    0.1422    0.0130
  11-005_11-004    11-005           11-004           CONDUIT          260.0    0.1385    0.0130
  11-006_11-005    11-006           11-005           CONDUIT          196.0    0.1378    0.0130
  11-007_11-006    11-007           11-006           CONDUIT          165.0    0.1394    0.0130
  11-008_11-007    11-008           11-007           CONDUIT          200.0    0.1400    0.0130
  11-009_11-008    11-009           11-008           CONDUIT          189.0    0.1376    0.0130
  11-010_11-009    11-010           11-009           CONDUIT          162.0    0.1420    0.0130
  11-012_11-010    11-012           11-010           CONDUIT          251.0    0.1394    0.0130
  11-013_11-012    11-013           11-012           CONDUIT          197.0    0.1421    0.0130
  11-014_11-013    11-014           11-013           CONDUIT          390.0    0.2513    0.0150
  11-015_11-014    11-015           11-014           CONDUIT          400.0    0.2500    0.0150
  11-015A_11-015   11-015A          11-015           CONDUIT           83.0    0.2530    0.0150
  11-016_11-015A   11-016           11-015A          CONDUIT          190.0    0.2526    0.0150
  11-017_11-016    11-017           11-016           CONDUIT          100.0    8.6016    0.0150
  11-018_11-017    11-018           11-017           CONDUIT           50.0   29.2345    0.0160
  11-019_11-018    11-019           11-018           CONDUIT          116.0    0.3017    0.0130
  11-020_11-019    11-020           11-019A          CONDUIT          123.3    9.4581    0.0130
  11-021_11-020    11-021           11-020           CONDUIT          135.0    0.3852    0.0140
  11-024_11-021    11-024           11-021           CONDUIT          135.0    0.2963    0.0140
  11-031_11-032    11-031           11-032           CONDUIT          279.0    0.3728    0.0130
  11-032_11-024    11-032           11-024           CONDUIT          284.1    0.3379    0.0130
  11-034_11-031    11-034           11-031           CONDUIT          319.4    0.3162    0.0130
  11-035_11-034    11-035           11-034           CONDUIT          361.6    0.3015    0.0130
  11-036_11-035    11-036           11-035           CONDUIT          327.7    0.2991    0.0130
  11-047A_11-047B  11-047A          11-047B          CONDUIT          226.9    0.4363    0.0130
  11-047B_11-034   11-047B          11-034           CONDUIT          438.1    0.4816    0.0130
  11-047C_11-047A  11-047C          11-047A          CONDUIT           45.5    0.3736    0.0130
  11-066_11-047C   11-066           11-047C          CONDUIT          401.0    0.3965    0.0130
  11-067_11-066    11-067           11-066           CONDUIT          397.0    0.3955    0.0130
  11-068_11-067    11-068           11-067           CONDUIT          390.0    0.2974    0.0130
  11-069_11-068    11-069           11-068           CONDUIT          419.5    0.2980    0.0130
  11-070_11-069    11-070           11-069           CONDUIT          259.3    0.2970    0.0130
  11-071_11-070    11-071           11-070           CONDUIT          306.0    0.2974    0.0130
  11-075_11-071    11-075           11-071           CONDUIT          220.0    0.2955    0.0130
  11-076_11-075    11-076           11-075           CONDUIT          330.0    0.2970    0.0130
  11-083_11-076    11-083           11-076           CONDUIT          325.0    0.7908    0.0130
  11-084_11-083    11-084           11-083           CONDUIT          268.0    1.0262    0.0130
  11-109_11-084    11-109           11-084           CONDUIT          357.2    0.6438    0.0130
  11-110_11-109    11-110           11-109           CONDUIT          221.0    0.6787    0.0130
  11-111_11-110    11-111           11-110           CONDUIT          236.0    1.0763    0.0130
  11-112_11-111    11-112           11-111           CONDUIT          277.0    0.4368    0.0130
  11-113_11-112    11-113           11-112           CONDUIT          297.0    0.4882    0.0130
  11-114_11-113    11-114           11-113           CONDUIT          300.0    0.5133    0.0130
  11-115_11-114    11-115           11-114           CONDUIT          297.0    0.5556    0.0130
  11-116_11-115    11-116           11-115           CONDUIT          161.0    1.6027    0.0130
  11-117_11-116    11-117           11-116           CONDUIT          298.0    0.4799    0.0130
  11-121_11-117    11-121           11-117           CONDUIT          301.0    0.5449    0.0130
  11-122_11-121    11-122           11-121           CONDUIT          259.5    0.2929    0.0130
  11-123_11-122    11-123           11-122           CONDUIT          260.0    0.2885    0.0130
  11-124_11-123    11-124           11-123           CONDUIT          305.0    0.2000    0.0130
  11-125_11-124    11-125           11-124           CONDUIT          305.0    0.2066    0.0130
  11-126_11-125    11-126           11-125           CONDUIT          305.0    0.2000    0.0130
  11-127_11-126    11-127           11-126           CONDUIT          305.0    0.2033    0.0130
  11-128_11-127    11-128           11-127           CONDUIT          360.0    0.2000    0.0130
  11-129_11-128    11-129           11-128           CONDUIT          310.0    0.2000    0.0130
  11-130_11-129    11-130           11-129           CONDUIT          305.0    0.2000    0.0130
  11-131_11-123    11-131           11-123           CONDUIT          280.0    0.3000    0.0130
  11-132_11-131    11-132           11-131           CONDUIT          349.5    0.3033    0.0130
  11-133_11-132    11-133           11-132           CONDUIT          200.0    0.3050    0.0130
  12-001_11-016    12-001           11-016           CONDUIT          208.0    0.2500    0.0150
  12-003_12-001    12-003           12-001           CONDUIT          378.0    0.2513    0.0140
  12-004_12-003    12-004           12-003           CONDUIT          369.0    0.2547    0.0140
  13-001_14-041    13-001           14-041           CONDUIT          537.5    0.0837    0.0130
  13-002_13-001    13-002           13-001           CONDUIT          236.5    0.5878    0.0130
  13-007_13-002    13-007           13-002           CONDUIT          282.8    0.2193    0.0130
  13-008_13-007    13-008           13-007           CONDUIT          303.3    0.1747    0.0130
  13-010_13-008    13-010           13-008           CONDUIT          283.3    0.0812    0.0130
  13-014_13-010    13-014           13-010           CONDUIT          167.6    0.4356    0.0130
  13-015_13-014    13-015           13-014           CONDUIT          463.8    0.4614    0.0130
  13-016_13-015    13-016           13-015           CONDUIT          503.5    0.5124    0.0130
  13-021_13-123    13-021           13-123           CONDUIT          361.8    0.0829    0.0130
  13-047_13-021    13-047           13-021           CONDUIT          508.5    0.1632    0.0130
  13-070_13-047    13-070           13-047           CONDUIT          338.9    0.2390    0.0130
  13-071_13-070    13-071           13-070           CONDUIT          128.6    0.2644    0.0130
  13-123_13-007    13-123           13-007           CONDUIT          380.4    0.2392    0.0130
  14-001_16-018    14-001           16-018           CONDUIT          361.6    0.2102    0.0130
  14-002_14-001    14-002           14-001           CONDUIT          250.0    0.2840    0.0130
  14-003_14-002    14-003           14-002           CONDUIT          201.2    0.3579    0.0130
  14-007_14-003    14-007           14-003           CONDUIT           56.8    0.2113    0.0130
  14-008_14-007    14-008           14-007           CONDUIT          442.3    0.1221    0.0130
  14-009_14-008    14-009           14-008           CONDUIT           67.2    0.2678    0.0130
  14-021_14-009    14-021           14-009           CONDUIT          185.1    0.0810    0.0130
  14-022_14-021    14-022           14-021           CONDUIT          245.4    0.0571    0.0130
  14-036_14-022    14-036           14-022           CONDUIT          715.2    0.1929    0.0130
  14-038_14-047    14-038           14-047           CONDUIT          181.9    0.2475    0.0130
  14-039_14-038    14-039           14-038           CONDUIT           92.0    0.0869    0.0130
  14-041_14-039    14-041           14-039           CONDUIT           52.9    0.1889    0.0130
  14-047_14-036    14-047           14-036           CONDUIT          516.9    0.1548    0.0130
  15-001_15-039    15-001           15-039           CONDUIT          189.2    0.5602    0.0130
  15-002_15-001    15-002           15-001           CONDUIT          194.3    0.9368    0.0130
  15-004_15-002    15-004           15-002           CONDUIT          184.5    0.6234    0.0130
  15-005_15-004    15-005           15-004           CONDUIT          437.4    0.6218    0.0130
  15-039_15-040    15-039           15-040           CONDUIT          312.9    0.5177    0.0130
  15-040_15-041    15-040           15-041           CONDUIT           84.9    0.0824    0.0130
  15-041_15-042    15-041           15-042           CONDUIT           75.1    0.8522    0.0130
  15-042_16-061    15-042           16-061           CONDUIT          221.8    0.4148    0.0130
  16-012_16-013    16-012           16-013           CONDUIT          135.0    0.1185    0.0120
  16-013_16-014    16-013           16-014           CONDUIT           67.9    0.2209    0.0120
  16-014_16-015    16-014           16-015           CONDUIT          245.5    0.1263    0.0120
  16-015_15-039    16-015           15-039           CONDUIT          147.4    0.2917    0.0120
  16-017_16-036    16-017           16-036           CONDUIT          300.0    0.1000    0.0120
  16-018_16-017    16-018           16-017           CONDUIT          700.0    0.1486    0.0130
  16-036_16-012    16-036           16-012           CONDUIT          380.0    0.1053    0.0120
  16-058_16-062    16-058           16-062           CONDUIT          125.0    0.2720    0.0160
  16-058A_16-058   16-058A          16-058           CONDUIT          295.1    0.2575    0.0130
  16-059_16-058A   16-059           16-058A          CONDUIT          221.0    0.0226    0.0130
  16-060_16-059    16-060           16-059           CONDUIT          216.5    0.2818    0.0130
  16-061_16-060    16-061           16-060           CONDUIT           52.2    0.2299    0.0130
  16-062_19-074    16-062           19-074           CONDUIT          600.0    0.0467    0.0160
  17-001_16-058    17-001           16-058           CONDUIT          305.0    0.0984    0.0150
  17-002_17-001    17-002           17-001           CONDUIT          198.0    0.1970    0.0150
  17-003_17-002    17-003           17-002           CONDUIT           22.0  108.7709    0.0130
  17-023_17-024    17-023           17-024           CONDUIT          132.0    0.0682    0.0150
  17-023a_17-023   17-023a          17-023           CONDUIT           73.0    0.0959    0.0150
  17-024_17-002    17-024           17-002           CONDUIT          370.0    0.1649    0.0150
  17-025_17-023a   17-025           17-023a          CONDUIT          324.2    0.1357    0.0150
  17-043_17-025    17-043           17-025           CONDUIT          365.2    0.0246    0.0150
  17-044_17-043    17-044           17-043           CONDUIT          150.0    0.0400    0.0150
  17-045_17-044    17-045           17-044           CONDUIT          160.0    0.0375    0.0160
  18-029_18-030    18-029           18-030           CONDUIT          338.0    0.1006    0.0130
  18-030_18-031    18-030           18-031           CONDUIT          390.0    0.1026    0.0130
  18-031_18-033    18-031           18-033           CONDUIT          225.0    0.0978    0.0130
  18-033_18-099    18-033           18-099           CONDUIT          350.0    0.1000    0.0130
  18-034_18-037    18-034           18-037           CONDUIT          197.0    0.1015    0.0130
  18-035_18-036    18-035           18-036           CONDUIT           50.9    7.9055    0.0150
  18-036_18-037    18-036           18-037           CONDUIT           50.0    2.5809    0.0130
  18-036_18-039A   18-036           18-039A          CONDUIT          164.2    0.0913    0.0150
  18-037_18-038    18-037           18-038           CONDUIT          128.0    0.1016    0.0130
  18-038_18-039    18-038           18-039           CONDUIT           46.0    0.1087    0.0130
  18-039_18-040    18-039           18-040           CONDUIT          291.0    0.1512    0.0130
  18-039A_18-083   18-039A          18-083           CONDUIT           99.0    0.0707    0.0100
  18-040_18-041    18-040           18-041           CONDUIT          315.0    0.1492    0.0130
  18-041_18-042    18-041           18-042           CONDUIT          299.0    0.1505    0.0140
  18-042_18-043    18-042           18-043           CONDUIT          310.0    0.1484    0.0140
  18-043_18-044    18-043           18-044           CONDUIT          238.0    0.1513    0.0140
  18-045_22-048    18-045           22-048           CONDUIT           73.0    2.0826    0.0140
  18-046_18-045    18-046           18-045           CONDUIT          158.0    1.3166    0.0130
  18-079_18-088    18-079           18-088           CONDUIT          266.0    0.0714    0.0130
  18-082_18-079    18-082           18-079           CONDUIT          190.0    0.0684    0.0100
  18-083_18-082    18-083           18-082           CONDUIT          224.0    0.0714    0.0100
  18-088_18-097    18-088           18-097           CONDUIT          168.0    0.0714    0.0130
  18-097_18-098    18-097           18-098           CONDUIT          246.0    0.0691    0.0130
  18-098_18-046    18-098           18-046           CONDUIT          323.0    0.0712    0.0130
  18-099_18-034    18-099           18-034           CONDUIT          350.0    0.1000    0.0130
  19-074_19-074B   19-074           19-074B          CONDUIT          303.5    0.0890    0.0160
  19-074B_19-074C  19-074B          19-074C          CONDUIT          248.0    0.0887    0.0150
  19-074C_19-075   19-074C          19-075           CONDUIT           88.0    0.0795    0.0150
  19-075_19-076    19-075           19-076           CONDUIT          159.0    0.3648    0.0140
  19-076_19-082    19-076           19-082           CONDUIT          319.3    0.0814    0.0140
  19-077_19-078    19-077           19-078           CONDUIT          189.5    0.0792    0.0130
  19-078_19-079    19-078           19-079           CONDUIT          295.5    0.0745    0.0150
  19-079_19-080    19-079           19-080           CONDUIT          371.0    0.0943    0.0150
  19-080_19-081    19-080           19-081           CONDUIT          514.0    0.0914    0.0150
  19-081_24-007    19-081           24-007           CONDUIT          595.0    0.0807    0.0150
  19-082_19-077    19-082           19-077           CONDUIT          511.0    0.0685    0.0130
  20-039_20-086    20-039           20-086           CONDUIT          254.9    0.5963    0.0130
  20-040_20-039    20-040           20-039           CONDUIT           37.5    1.4935    0.0130
  20-041_20-040    20-041           20-040           CONDUIT          233.0    0.2618    0.0130
  20-042_20-041    20-042           20-041           CONDUIT          180.0    0.5222    0.0130
  20-043_20-042    20-043           20-042           CONDUIT          270.0    1.3483    0.0130
  20-044_20-043    20-044           20-043           CONDUIT          240.0    0.5000    0.0130
  20-045_20-044    20-045           20-044           CONDUIT          234.0    0.2906    0.0130
  20-083_11-036    20-083           11-036           CONDUIT          248.5    0.3018    0.0130
  20-084_20-083    20-084           20-083           CONDUIT          371.4    0.6005    0.0130
  20-085_20-084    20-085           20-084           CONDUIT          221.0    0.6335    0.0130
  20-086_20-085    20-086           20-085           CONDUIT          313.0    0.6070    0.0130
  21-027A_27-027   21-027A          27-027           CONDUIT          295.0    0.5661    0.0130
  21-048_21-078    21-048           21-078           CONDUIT           32.0    0.4063    0.0140
  21-070_21-071    21-070           21-071           CONDUIT           23.0    2.6096    0.0140
  21-071_21-072    21-071           21-072           CONDUIT           98.0    0.3061    0.0150
  21-072_21-073A   21-072           21-073A          CONDUIT          256.0    0.0313    0.0150
  21-073_21-074A   21-073           21-074A          CONDUIT          277.0    0.1011    0.0140
  21-073A_21-073   21-073A          21-073           CONDUIT          262.0    0.0267    0.0150
  21-074_21-075    21-074           21-075           CONDUIT           54.0    1.6298    0.0130
  21-074A_21-074   21-074A          21-074           CONDUIT          143.0    0.1119    0.0140
  21-076_21-070    21-076           21-070           CONDUIT           16.0    0.8125    0.0140
  21-078_21-076    21-078           21-076           CONDUIT          333.0    1.9313    0.0140
  22-001_21-048    22-001           21-048           CONDUIT          430.6    0.6410    0.0130
  22-020_22-001    22-020           22-001           CONDUIT          489.0    0.2965    0.0130
  22-026_22-020    22-026           22-020           CONDUIT          585.0    0.3282    0.0130
  22-036_22-026    22-036           22-026           CONDUIT          300.0    0.3067    0.0120
  22-038_22-026    22-038           22-026           CONDUIT           17.6   -2.7297    0.0140
  22-048_22-036    22-048           22-036           CONDUIT          280.0    0.2893    0.0130
  23-001A_24-000   23-001A          24-001           CONDUIT          231.0    0.0996    0.0130
  23-002_23-001    23-002           23-001           CONDUIT         1780.0    0.0904    0.0130
  23-003_23-002    23-003           23-002           CONDUIT          155.0    0.1226    0.0130
  23-004_23-003    23-004           23-003           CONDUIT          160.0    0.1250    0.0130
  23-005_23-004    23-005           23-004           CONDUIT          419.3    0.0525    0.0130
  23-006_23-005    23-006           23-005           CONDUIT          403.3    0.0793    0.0130
  23-007_23-006    23-007           23-006           CONDUIT          661.9    0.1314    0.0130
  23-008_23-007    23-008           23-007           CONDUIT          153.7    0.2017    0.0130
  23-009_23-008    23-009           23-008           CONDUIT          381.8    0.0891    0.0130
  23-010_23-009    23-010           23-009           CONDUIT          384.0    0.1120    0.0130
  23-011_23-010    23-011           23-010           CONDUIT          350.2    0.1713    0.0130
  23-012_23-011    23-012           23-011           CONDUIT          346.9    0.0202    0.0130
  23-013_23-012    23-013           23-012           CONDUIT           80.9    0.5810    0.0130
  23-014_23-013    23-014           23-013           CONDUIT           24.1    0.1244    0.0130
  24-001_InfluentBox 24-001           InfluentBox      CONDUIT           50.0   -0.6000    0.0130
  24-002_RS_Jun    24-002           RS_Jun           CONDUIT           70.0    0.1286    0.0140
  24-003_24-003A   24-003           24-003A          CONDUIT           94.0    0.0957    0.0130
  24-003A_EQDivChamb 24-003A          EQDivChamb       CONDUIT          170.0    0.1059    0.0100
  24-004_24-002    24-004           24-002           CONDUIT          523.2    0.1605    0.0140
  24-004A_24-004   24-004A          24-004           CONDUIT          136.0    0.1544    0.0140
  24-005_24-004A   24-005           24-004A          CONDUIT          224.0    0.1607    0.0140
  24-006_24-006A   24-006           24-006A          CONDUIT           92.0    0.0870    0.0140
  24-006A_24-005   24-006A          24-005           CONDUIT          510.9    0.0881    0.0140
  24-007_24-006    24-007           24-006           CONDUIT          582.0    0.0567    0.0140
  24-008_24-007    24-008           24-007           CONDUIT          350.5    1.4038    0.0130
  24-009_24-044    24-009           24-044           CONDUIT           79.0    0.8102    0.0130
  24-010_24-009    24-010           24-009           CONDUIT          404.0    2.0450    0.0130
  24-011_24-045    24-011           24-045           CONDUIT          173.0    4.1828    0.0130
  24-012_24-011    24-012           24-011           CONDUIT          485.0    0.5979    0.0130
  24-013_24-012    24-013           24-012           CONDUIT          476.0    0.5988    0.0130
  24-014_24-013    24-014           24-013           CONDUIT          435.0    0.6023    0.0130
  24-015_24-014    24-015           24-014           CONDUIT          408.4    0.5975    0.0130
  24-016_24-015    24-016           24-015           CONDUIT          458.7    0.5886    0.0130
  24-017_24-016    24-017           24-016           CONDUIT          373.1    0.6031    0.0130
  24-018_24-017    24-018           24-017           CONDUIT          399.9    0.5051    0.0130
  24-019_24-018    24-019           24-018           CONDUIT          378.2    0.7430    0.0130
  24-020_24-019    24-020           24-019           CONDUIT          373.0    0.6059    0.0130
  24-021_24-020    24-021           24-020           CONDUIT          376.9    0.5200    0.0130
  24-022_24-021    24-022           24-021           CONDUIT          389.1    0.5885    0.0130
  24-044_24-008    24-044           24-008           CONDUIT          369.0    1.0136    0.0130
  24-045_24-010    24-045           24-010           CONDUIT           47.0    1.9152    0.0130
  25-001_24-022    25-001           24-022           CONDUIT          379.8    0.5845    0.0130
  25-002_25-001    25-002           25-001           CONDUIT          325.8    0.6783    0.0130
  25-003_25-002    25-003           25-002           CONDUIT          307.9    0.5781    0.0130
  25-004_25-003    25-004           25-003           CONDUIT          279.1    0.6915    0.0130
  25-005_25-004    25-005           25-004           CONDUIT          291.2    0.6078    0.0130
  25-006_25-005    25-006           25-005           CONDUIT          426.2    0.7954    0.0130
  25-007_25-006    25-007           25-006           CONDUIT          405.4    0.6685    0.0130
  25-008_25-007    25-008           25-007           CONDUIT          135.0    0.7926    0.0130
  25-014_25-008    25-014           25-008           CONDUIT          436.1    0.0619    0.0130
  25-017_25-014    25-017           25-014           CONDUIT          436.0    0.0642    0.0130
  25-019_25-017    25-019           25-017           CONDUIT          258.9    0.0579    0.0130
  25-025_25-019    25-025           25-019           CONDUIT          172.9    0.1041    0.0130
  25-033_25-025    25-033           25-025           CONDUIT          410.4    0.1072    0.0130
  25-034_25-033    25-034           25-033           CONDUIT          222.6    0.1033    0.0130
  25-035_25-034    25-035           25-034           CONDUIT          404.9    0.0939    0.0130
  25-036_25-035    25-036           25-035           CONDUIT          501.2    0.0978    0.0130
  25-037_25-036    25-037           25-036           CONDUIT          362.8    0.1268    0.0130
  25-038_25-037    25-038           25-037           CONDUIT          493.0    0.0852    0.0130
  25-039_25-038    25-039           25-038           CONDUIT          340.0    0.1118    0.0130
  25-040_25-039    25-040           25-039           CONDUIT          142.1    0.1830    0.0130
  25-041_25-008    25-041           25-008           CONDUIT          359.0    0.9861    0.0130
  25-042_25-041    25-042           25-041           CONDUIT          255.2    1.0228    0.0130
  25-043_25-042    25-043           25-042           CONDUIT          303.2    1.0786    0.0130
  25-044_25-043    25-044           25-043           CONDUIT          308.9    0.9648    0.0130
  25-045_25-044    25-045           25-044           CONDUIT          305.5    1.0541    0.0130
  25-046_25-045    25-046           25-045           CONDUIT          328.1    0.5273    0.0130
  25-047_25-046    25-047           25-046           CONDUIT          370.1    0.5971    0.0130
  25-048_25-047    25-048           25-047           CONDUIT          401.1    0.5111    0.0130
  25-048_25-049    25-049           25-048           CONDUIT           35.0    4.9202    0.0130
  26-001_25-040    26-001           25-040           CONDUIT          259.6    0.0732    0.0130
  26-002_26-001    26-002           26-001           CONDUIT          402.9    0.0645    0.0130
  26-003_26-002    26-003           26-002           CONDUIT          414.0    0.1208    0.0130
  26-004_26-003    26-004           26-003           CONDUIT          383.6    0.1147    0.0130
  26-005_26-004    26-005           26-004           CONDUIT          502.0    0.2012    0.0130
  26-006_26-005    26-006           26-005           CONDUIT          502.8    0.2208    0.0130
  26-007_26-006    26-007           26-006           CONDUIT          468.9    0.1685    0.0130
  26-016_26-007    26-016           26-007           CONDUIT          476.9    0.2097    0.0130
  26-017_26-016    26-017           26-016           CONDUIT          387.1    0.2325    0.0130
  27_022_27-021    27_022           27-021           CONDUIT          299.5    0.6210    0.0130
  27-001_17-045    27-001           17-045           CONDUIT          366.0    0.1011    0.0150
  27-003_27-001    27-003           27-001           CONDUIT          351.7    0.0512    0.0150
  27-004_27-003    27-004           27-003           CONDUIT          337.0    0.3502    0.0130
  27-020_27-003    27-020           27-003           CONDUIT          262.6    0.1333    0.0140
  27-021_27-020    27-021           27-020           CONDUIT          221.4    0.1220    0.0140
  27-023_27_022    27-023           27_022           CONDUIT          348.2    0.6376    0.0130
  27-024_27-023    27-024           27-023           CONDUIT          144.6    0.6363    0.0130
  27-025_27-024    27-025           27-024           CONDUIT          229.0    0.5066    0.0130
  27-026_27-025    27-026           27-025           CONDUIT          167.8    0.6734    0.0130
  27-027_27-026    27-027           27-026           CONDUIT          151.8    0.5797    0.0130
  27-028_21-027A   27-028           21-027A          CONDUIT          387.2    0.6457    0.0130
  27-029_27-028    27-029           27-028           CONDUIT          367.2    0.5474    0.0130
  27-030_27-029    27-030           27-029           CONDUIT          326.9    2.2918    0.0130
  27-031_27-030    27-031           27-030           CONDUIT          295.0    2.8045    0.0130
  27-032_27-031    27-032           27-031           CONDUIT          391.7    1.0621    0.0130
  27-041_27-032    27-041           27-032           CONDUIT          277.6    0.6989    0.0130
  27-042_27-041    27-042           27-041           CONDUIT          352.1    0.7299    0.0130
  27-043_27-042    27-043           27-042           CONDUIT          356.5    0.7574    0.0130
  27-044_27-043    27-044           27-043           CONDUIT          187.1    0.5719    0.0130
  27-045_27-044    27-045           27-044           CONDUIT          187.8    0.7029    0.0130
  27-046_27-045    27-046           27-045           CONDUIT          259.3    0.6865    0.0130
  27-047_27-046    27-047           27-046           CONDUIT          251.1    0.7965    0.0130
  CrickParallel1   18-044           CrickParallel    CONDUIT           45.0    6.4579    0.0130
  CrickParallel2   CrickParallel    18-045           CONDUIT          131.0   -2.0997    0.0130
  DryBarrel1       18-044           DryBarrelNode    CONDUIT           45.0    6.4579    0.0130
  DryBarrel2       DryBarrelNode    18-045           CONDUIT          131.0   -2.1761    0.0130
  DrySiphonDrop    21-075           Siphon2-ElbowA   CONDUIT           17.0   48.3505    0.0130
  DrySiphonRace    Siphon2-ElbowA   Siphon2-ElbowB   CONDUIT          170.8    0.0117    0.0130
  DrySiphonRise    Siphon2-ElbowB   24-003           CONDUIT           60.0  -11.6618    0.0130
  EQDivChamb_InfluentBox EQDivChamb       InfluentBox      CONDUIT          340.0    0.0176    0.0110
  GMS_24in_NewPipe_Drop 21-075           WI_Par-1         CONDUIT           17.0   77.3368    0.0130
  GMS_24in_NewPipe_Race WI_Par-1         WI_Par-2         CONDUIT          170.8    0.0117    0.0130
  GMS_24in_NewPipe_Rise WI_Par-2         24-003           CONDUIT           60.0  -15.0854    0.0130
  HemmDrySiphonDrop 23-001           HemmDryNode1     CONDUIT           30.0   71.8185    0.0130
  HemmDrySiphonRace HemmDryNode1     HemmDryNode2     CONDUIT          180.0    0.0006    0.0130
  HemmDrySiphonRise HemmDryNode2     23-001A          CONDUIT           39.0  -19.4067    0.0130
  HemmWetSiphonDrop 23-001           HemmWetNode1     CONDUIT           30.0   76.6470    0.0130
  HemmWetSiphonRace HemmWetNode1     HemmWetNode2     CONDUIT          180.0    0.0006    0.0130
  HemmWetSiphonRise HemmWetNode2     23-001A          CONDUIT           39.0  -21.4515    0.0130
  WetBarrel1       18-044           WetBarrelNode    CONDUIT           45.0    8.6994    0.0130
  WetBarrel2       WetBarrelNode    18-045           CONDUIT          131.0   -2.8638    0.0130
  WetSiphonDrop    21-075           Siphon1-ElbowA   CONDUIT           15.4   77.6949    0.0130
  WetSiphonRace    Siphon1-ElbowA   Siphon1-ElbowB   CONDUIT          170.8    0.0117    0.0130
  WetSiphonRise    Siphon1-ElbowB   24-003           CONDUIT           60.0  -14.6549    0.0130
  WWTP_Influent    HPS_Well         WWTP_Effluent    CONDUIT           50.0    3.0014    0.0100
  EastGate         RS_Jun           HPS_Well         ORIFICE     
  PipeRestriction  11-019A          11-019           ORIFICE     
  WestGate         InfluentBox      RS_Jun           ORIFICE     
  EQWeir           EQDivChamb       EQMH1            WEIR        
  HemmRdSSO        23-001           HemmRdSSO        WEIR        
  SSODischarge     21-074           PiquaSSO         WEIR        
  
  
  *********************
  Cross Section Summary
  *********************
                                        Full     Full     Hyd.     Max.   No. of     Full
  Conduit          Shape               Depth     Area     Rad.    Width  Barrels     Flow
  ---------------------------------------------------------------------------------------
  01-001_05-008    CIRCULAR             2.50     4.91     0.62     2.50        1    29.04
  01-002_01-001    CIRCULAR             2.50     4.91     0.62     2.50        1     8.31
  01-012_01-013    CIRCULAR             0.83     0.55     0.21     0.83        1     0.45
  01-013_01-002    CIRCULAR             2.50     4.91     0.62     2.50        1     8.44
  04-053_04-054    CIRCULAR             1.00     0.79     0.25     1.00        1     4.31
  04-054_04-055    CIRCULAR             1.00     0.79     0.25     1.00        1     3.99
  04-055_18-033    CIRCULAR             1.00     0.79     0.25     1.00        1     3.82
  05-001_08-034    CIRCULAR             2.50     4.91     0.62     2.50        1    26.51
  05-002_05-001    CIRCULAR             2.50     4.91     0.62     2.50        1    37.49
  05-003_05-002    CIRCULAR             2.50     4.91     0.62     2.50        1    18.76
  05-004_05-003    CIRCULAR             2.50     4.91     0.62     2.50        1    18.71
  05-005_05-004    CIRCULAR             2.50     4.91     0.62     2.50        1    18.75
  05-006_05-005    CIRCULAR             2.50     4.91     0.62     2.50        1    37.75
  05-007_05-006    CIRCULAR             2.50     4.91     0.62     2.50        1    29.04
  05-008_05-007    CIRCULAR             2.50     4.91     0.62     2.50        1    29.04
  05-009_05-005    CIRCULAR             1.00     0.79     0.25     1.00        1     0.73
  06-001_18-035    CIRCULAR             1.00     0.79     0.25     1.00        1     4.84
  06-002_06-001    CIRCULAR             1.00     0.79     0.25     1.00        1     4.89
  06-003_06-002    CIRCULAR             1.00     0.79     0.25     1.00        1     3.64
  06-004_06-003    CIRCULAR             1.00     0.79     0.25     1.00        1     3.64
  07-001_08-012    CIRCULAR             1.00     0.79     0.25     1.00        1     2.30
  08-001_23-001    FILLED_CIRCULAR      2.88     6.97     0.71     3.00        1    13.08
  08-002_08-001    FILLED_CIRCULAR      2.96     7.05     0.73     3.00        1    13.43
  08-003_08-002    FILLED_CIRCULAR      2.96     7.05     0.73     3.00        1    13.61
  08-004_08-003    CIRCULAR             3.00     7.07     0.75     3.00        1    43.11
  08-005_08-004    CIRCULAR             3.00     7.07     0.75     3.00        1    42.28
  08-006_08-005    CIRCULAR             3.00     7.07     0.75     3.00        1    43.43
  08-007_08-006    CIRCULAR             3.00     7.07     0.75     3.00        1    43.31
  08-008_08-007    CIRCULAR             3.00     7.07     0.75     3.00        1    44.29
  08-009_08-008    CIRCULAR             3.00     7.07     0.75     3.00        1    19.07
  08-010_08-009    CIRCULAR             2.50     4.91     0.62     2.50        1    10.19
  08-011_08-010    CIRCULAR             1.00     0.79     0.25     1.00        1     2.30
  08-012_08-011    CIRCULAR             1.00     0.79     0.25     1.00        1     2.30
  08-026_08-010    CIRCULAR             2.50     4.91     0.62     2.50        1    42.05
  08-027_08-026    CIRCULAR             2.50     4.91     0.62     2.50        1    26.51
  08-028_08-027    CIRCULAR             2.50     4.91     0.62     2.50        1    37.49
  08-034_08-028    CIRCULAR             2.50     4.91     0.62     2.50        1    26.51
  09-001_09-100    CIRCULAR             1.00     0.79     0.25     1.00        1     1.34
  09-002_09-001    CIRCULAR             1.00     0.79     0.25     1.00        1     1.38
  09-006_09-002    CIRCULAR             1.00     0.79     0.25     1.00        1     1.30
  09-007_09-006    CIRCULAR             0.84     0.55     0.21     0.84        1     1.11
  09-008_09-007    CIRCULAR             0.84     0.55     0.21     0.84        1     0.99
  09-009_09-008    CIRCULAR             0.84     0.55     0.21     0.84        1     0.93
  09-009_09-099    CIRCULAR             0.84     0.55     0.21     0.84        1     0.96
  09-063_09-009    CIRCULAR             0.84     0.55     0.21     0.84        1     0.69
  09-072_09-063    CIRCULAR             0.84     0.55     0.21     0.84        1     0.79
  09-073_09-072    CIRCULAR             0.84     0.55     0.21     0.84        1     0.78
  09-074_09-073    CIRCULAR             0.84     0.55     0.21     0.84        1     0.90
  09-075_09-074    CIRCULAR             0.84     0.55     0.21     0.84        1     0.71
  09-076_09-075    CIRCULAR             0.84     0.55     0.21     0.84        1     0.64
  09-100_20-045    CIRCULAR             1.00     0.79     0.25     1.00        1     0.66
  11-003_18-029    CIRCULAR             2.25     3.98     0.56     2.25        1     7.51
  11-004_11-003    CIRCULAR             2.25     3.98     0.56     2.25        1     7.55
  11-005_11-004    CIRCULAR             2.25     3.98     0.56     2.25        1     7.45
  11-006_11-005    CIRCULAR             2.25     3.98     0.56     2.25        1     7.43
  11-007_11-006    CIRCULAR             2.25     3.98     0.56     2.25        1     7.47
  11-008_11-007    CIRCULAR             2.25     3.98     0.56     2.25        1     7.49
  11-009_11-008    CIRCULAR             2.25     3.98     0.56     2.25        1     7.42
  11-010_11-009    CIRCULAR             2.25     3.98     0.56     2.25        1     7.54
  11-012_11-010    CIRCULAR             2.25     3.98     0.56     2.25        1     7.47
  11-013_11-012    CIRCULAR             2.25     3.98     0.56     2.25        1     7.55
  11-014_11-013    CIRCULAR             2.00     3.14     0.50     2.00        1     6.35
  11-015_11-014    CIRCULAR             2.00     3.14     0.50     2.00        1     6.34
  11-015A_11-015   FILLED_CIRCULAR      1.96     3.13     0.48     2.00        1     6.18
  11-016_11-015A   FILLED_CIRCULAR      1.96     3.13     0.48     2.00        1     6.18
  11-017_11-016    CIRCULAR             0.84     0.55     0.21     0.84        1     3.68
  11-018_11-017    CIRCULAR             0.84     0.55     0.21     0.84        1     6.35
  11-019_11-018    CIRCULAR             1.50     1.77     0.38     1.50        1     3.73
  11-020_11-019    CIRCULAR             0.84     0.55     0.21     0.84        1     4.45
  11-021_11-020    FILLED_CIRCULAR      1.21     1.22     0.30     1.25        1     2.31
  11-024_11-021    FILLED_CIRCULAR      1.21     1.22     0.30     1.25        1     2.02
  11-031_11-032    CIRCULAR             1.50     1.77     0.38     1.50        1     4.15
  11-032_11-024    CIRCULAR             1.50     1.77     0.38     1.50        1     3.95
  11-034_11-031    CIRCULAR             1.50     1.77     0.38     1.50        1     3.82
  11-035_11-034    CIRCULAR             1.00     0.79     0.25     1.00        1     1.26
  11-036_11-035    CIRCULAR             1.00     0.79     0.25     1.00        1     1.26
  11-047A_11-047B  CIRCULAR             1.00     0.79     0.25     1.00        1     1.52
  11-047B_11-034   CIRCULAR             1.00     0.79     0.25     1.00        1     1.60
  11-047C_11-047A  CIRCULAR             1.00     0.79     0.25     1.00        1     1.41
  11-066_11-047C   CIRCULAR             1.00     0.79     0.25     1.00        1     1.45
  11-067_11-066    CIRCULAR             1.00     0.79     0.25     1.00        1     1.45
  11-068_11-067    CIRCULAR             1.00     0.79     0.25     1.00        1     1.26
  11-069_11-068    CIRCULAR             1.00     0.79     0.25     1.00        1     1.26
  11-070_11-069    CIRCULAR             1.00     0.79     0.25     1.00        1     1.25
  11-071_11-070    CIRCULAR             1.00     0.79     0.25     1.00        1     1.26
  11-075_11-071    CIRCULAR             1.00     0.79     0.25     1.00        1     1.25
  11-076_11-075    CIRCULAR             1.00     0.79     0.25     1.00        1     1.25
  11-083_11-076    CIRCULAR             0.83     0.55     0.21     0.83        1     1.26
  11-084_11-083    CIRCULAR             0.83     0.55     0.21     0.83        1     1.43
  11-109_11-084    CIRCULAR             0.83     0.55     0.21     0.83        1     1.14
  11-110_11-109    CIRCULAR             0.83     0.55     0.21     0.83        1     1.17
  11-111_11-110    CIRCULAR             0.83     0.55     0.21     0.83        1     1.47
  11-112_11-111    CIRCULAR             0.83     0.55     0.21     0.83        1     0.94
  11-113_11-112    CIRCULAR             0.83     0.55     0.21     0.83        1     0.99
  11-114_11-113    CIRCULAR             0.83     0.55     0.21     0.83        1     1.01
  11-115_11-114    CIRCULAR             0.83     0.55     0.21     0.83        1     1.06
  11-116_11-115    CIRCULAR             0.83     0.55     0.21     0.83        1     1.79
  11-117_11-116    CIRCULAR             0.83     0.55     0.21     0.83        1     0.98
  11-121_11-117    CIRCULAR             0.83     0.55     0.21     0.83        1     1.05
  11-122_11-121    CIRCULAR             0.83     0.55     0.21     0.83        1     0.77
  11-123_11-122    CIRCULAR             0.83     0.55     0.21     0.83        1     0.76
  11-124_11-123    CIRCULAR             0.83     0.55     0.21     0.83        1     0.63
  11-125_11-124    CIRCULAR             0.83     0.55     0.21     0.83        1     0.64
  11-126_11-125    CIRCULAR             0.83     0.55     0.21     0.83        1     0.63
  11-127_11-126    CIRCULAR             0.83     0.55     0.21     0.83        1     0.64
  11-128_11-127    CIRCULAR             0.83     0.55     0.21     0.83        1     0.63
  11-129_11-128    CIRCULAR             0.83     0.55     0.21     0.83        1     0.63
  11-130_11-129    CIRCULAR             0.83     0.55     0.21     0.83        1     0.63
  11-131_11-123    CIRCULAR             0.83     0.55     0.21     0.83        1     0.78
  11-132_11-131    CIRCULAR             0.83     0.55     0.21     0.83        1     0.78
  11-133_11-132    CIRCULAR             0.83     0.55     0.21     0.83        1     0.78
  12-001_11-016    CIRCULAR             2.00     3.14     0.50     2.00        1     6.34
  12-003_12-001    CIRCULAR             1.50     1.77     0.38     1.50        1     3.16
  12-004_12-003    CIRCULAR             1.50     1.77     0.38     1.50        1     3.18
  13-001_14-041    CIRCULAR             1.00     0.79     0.25     1.00        1     0.67
  13-002_13-001    CIRCULAR             1.00     0.79     0.25     1.00        1     1.77
  13-007_13-002    CIRCULAR             1.00     0.79     0.25     1.00        1     1.08
  13-008_13-007    CIRCULAR             0.67     0.35     0.17     0.67        1     0.33
  13-010_13-008    CIRCULAR             0.67     0.35     0.17     0.67        1     0.22
  13-014_13-010    CIRCULAR             0.67     0.35     0.17     0.67        1     0.52
  13-015_13-014    CIRCULAR             0.67     0.35     0.17     0.67        1     0.53
  13-016_13-015    CIRCULAR             0.67     0.35     0.17     0.67        1     0.56
  13-021_13-123    CIRCULAR             1.00     0.79     0.25     1.00        1     0.66
  13-047_13-021    CIRCULAR             1.00     0.79     0.25     1.00        1     0.93
  13-070_13-047    CIRCULAR             1.00     0.79     0.25     1.00        1     1.13
  13-071_13-070    CIRCULAR             1.00     0.79     0.25     1.00        1     1.18
  13-123_13-007    CIRCULAR             1.00     0.79     0.25     1.00        1     1.13
  14-001_16-018    CIRCULAR             1.00     0.79     0.25     1.00        1     1.06
  14-002_14-001    CIRCULAR             1.00     0.79     0.25     1.00        1     1.23
  14-003_14-002    CIRCULAR             1.00     0.79     0.25     1.00        1     1.38
  14-007_14-003    CIRCULAR             1.00     0.79     0.25     1.00        1     1.06
  14-008_14-007    CIRCULAR             1.00     0.79     0.25     1.00        1     0.80
  14-009_14-008    CIRCULAR             1.00     0.79     0.25     1.00        1     1.19
  14-021_14-009    CIRCULAR             1.00     0.79     0.25     1.00        1     0.66
  14-022_14-021    CIRCULAR             1.00     0.79     0.25     1.00        1     0.55
  14-036_14-022    CIRCULAR             1.00     0.79     0.25     1.00        1     1.01
  14-038_14-047    CIRCULAR             1.00     0.79     0.25     1.00        1     1.15
  14-039_14-038    CIRCULAR             1.00     0.79     0.25     1.00        1     0.68
  14-041_14-039    CIRCULAR             1.00     0.79     0.25     1.00        1     1.00
  14-047_14-036    CIRCULAR             1.00     0.79     0.25     1.00        1     0.91
  15-001_15-039    CIRCULAR             1.00     0.79     0.25     1.00        1     1.72
  15-002_15-001    CIRCULAR             1.00     0.79     0.25     1.00        1     2.23
  15-004_15-002    CIRCULAR             1.00     0.79     0.25     1.00        1     1.82
  15-005_15-004    CIRCULAR             1.00     0.79     0.25     1.00        1     1.82
  15-039_15-040    CIRCULAR             1.50     1.77     0.38     1.50        1     4.89
  15-040_15-041    CIRCULAR             1.50     1.77     0.38     1.50        1     1.95
  15-041_15-042    CIRCULAR             1.50     1.77     0.38     1.50        1     6.27
  15-042_16-061    CIRCULAR             1.50     1.77     0.38     1.50        1     4.37
  16-012_16-013    CIRCULAR             1.25     1.23     0.31     1.25        1     1.56
  16-013_16-014    CIRCULAR             1.25     1.23     0.31     1.25        1     2.13
  16-014_16-015    CIRCULAR             1.25     1.23     0.31     1.25        1     1.61
  16-015_15-039    CIRCULAR             1.25     1.23     0.31     1.25        1     2.44
  16-017_16-036    CIRCULAR             1.25     1.23     0.31     1.25        1     1.43
  16-018_16-017    CIRCULAR             1.00     0.79     0.25     1.00        1     0.89
  16-036_16-012    CIRCULAR             1.25     1.23     0.31     1.25        1     1.47
  16-058_16-062    FILLED_CIRCULAR      2.38     5.45     0.61     2.75        1    12.31
  16-058A_16-058   CIRCULAR             1.50     1.77     0.38     1.50        1     3.45
  16-059_16-058A   CIRCULAR             1.50     1.77     0.38     1.50        1     1.02
  16-060_16-059    CIRCULAR             1.50     1.77     0.38     1.50        1     3.60
  16-061_16-060    CIRCULAR             1.50     1.77     0.38     1.50        1     3.26
  16-062_19-074    FILLED_CIRCULAR      2.38     5.45     0.61     2.75        1     5.10
  17-001_16-058    FILLED_CIRCULAR      1.59     2.15     0.39     1.67        1     2.32
  17-002_17-001    FILLED_CIRCULAR      1.59     2.30     0.40     1.75        1     3.55
  17-003_17-002    CIRCULAR             1.00     0.79     0.25     1.00        1    24.02
  17-023_17-024    FILLED_CIRCULAR      1.59     2.30     0.40     1.75        1     2.09
  17-023a_17-023   FILLED_CIRCULAR      1.59     2.30     0.40     1.75        1     2.47
  17-024_17-002    FILLED_CIRCULAR      1.59     2.30     0.40     1.75        1     3.24
  17-025_17-023a   FILLED_CIRCULAR      1.59     2.30     0.40     1.75        1     2.94
  17-043_17-025    FILLED_CIRCULAR      1.59     2.30     0.40     1.75        1     1.25
  17-044_17-043    FILLED_CIRCULAR      1.59     2.30     0.40     1.75        1     1.60
  17-045_17-044    FILLED_CIRCULAR      1.59     2.30     0.40     1.75        1     1.45
  18-029_18-030    CIRCULAR             2.50     4.91     0.62     2.50        1     8.41
  18-030_18-031    CIRCULAR             2.50     4.91     0.62     2.50        1     8.49
  18-031_18-033    CIRCULAR             2.50     4.91     0.62     2.50        1     8.29
  18-033_18-099    CIRCULAR             2.50     4.91     0.62     2.50        1     8.38
  18-034_18-037    CIRCULAR             2.50     4.91     0.62     2.50        1     8.45
  18-035_18-036    CIRCULAR             1.00     0.79     0.25     1.00        1     5.61
  18-036_18-037    CIRCULAR             1.00     0.79     0.25     1.00        1     3.70
  18-036_18-039A   CIRCULAR             1.00     0.79     0.25     1.00        1     0.60
  18-037_18-038    CIRCULAR             2.50     4.91     0.62     2.50        1     8.45
  18-038_18-039    CIRCULAR             2.50     4.91     0.62     2.50        1     8.74
  18-039_18-040    CIRCULAR             2.50     4.91     0.62     2.50        1    10.31
  18-039A_18-083   CIRCULAR             1.00     0.79     0.25     1.00        1     0.80
  18-040_18-041    CIRCULAR             2.50     4.91     0.62     2.50        1    10.24
  18-041_18-042    CIRCULAR             2.50     4.91     0.62     2.50        1     9.55
  18-042_18-043    CIRCULAR             2.50     4.91     0.62     2.50        1     9.48
  18-043_18-044    CIRCULAR             2.50     4.91     0.62     2.50        1     9.57
  18-045_22-048    CIRCULAR             2.50     4.91     0.62     2.50        1    35.53
[...]
  24-008_24-007           1.00   0.00  0.00  0.00  0.00  0.00  0.00  1.00  0.00  0.00
  24-009_24-044           1.00   0.00  0.00  0.00  0.00  0.00  0.00  1.00  0.00  0.00
  24-010_24-009           1.00   0.00  0.00  0.00  0.00  0.20  0.00  0.80  0.20  0.00
  24-011_24-045           1.00   0.00  0.00  0.00  0.00  0.04  0.00  0.96  0.04  0.00
  24-012_24-011           1.00   0.00  0.00  0.00  0.00  1.00  0.00  0.00  0.00  0.00
  24-013_24-012           1.00   0.00  0.00  0.00  0.12  0.88  0.00  0.00  1.00  0.00
  24-014_24-013           1.00   0.00  0.00  0.00  0.00  0.00  0.00  1.00  0.00  0.00
  24-015_24-014           1.00   0.00  0.00  0.00  0.00  1.00  0.00  0.00  0.00  0.00
  24-016_24-015           1.00   0.00  0.00  0.00  0.00  1.00  0.00  0.00  0.00  0.00
  24-017_24-016           1.00   0.00  0.00  0.00  0.00  1.00  0.00  0.00  0.98  0.00
  24-018_24-017           1.00   0.00  0.00  0.00  0.00  0.00  0.00  1.00  0.00  0.00
  24-019_24-018           1.00   0.00  0.00  0.00  0.00  1.00  0.00  0.00  1.00  0.00
  24-020_24-019           1.00   0.00  0.00  0.00  0.00  0.00  0.00  1.00  0.00  0.00
  24-021_24-020           1.00   0.00  0.00  0.00  0.01  0.99  0.00  0.00  0.00  0.00
  24-022_24-021           1.00   0.00  0.00  0.00  0.01  0.99  0.00  0.00  1.00  0.00
  24-044_24-008           1.00   0.00  0.00  0.00  0.00  1.00  0.00  0.00  0.00  0.00
  24-045_24-010           1.77   0.00  0.00  0.00  0.00  0.00  0.00  1.00  0.00  0.00
  25-001_24-022           1.00   0.00  0.00  0.00  0.00  1.00  0.00  0.00  0.00  0.00
  25-002_25-001           1.00   0.00  0.00  0.00  0.00  0.00  0.00  1.00  0.00  0.00
  25-003_25-002           1.00   0.00  0.00  0.00  0.00  1.00  0.00  0.00  0.00  0.00
  25-004_25-003           1.00   0.00  0.00  0.00  0.00  1.00  0.00  0.00  0.99  0.00
  25-005_25-004           1.00   0.00  0.00  0.00  0.00  1.00  0.00  0.00  0.00  0.00
  25-006_25-005           1.00   0.00  0.00  0.00  0.00  1.00  0.00  0.00  1.00  0.00
  25-007_25-006           1.00   0.00  0.00  0.00  0.00  1.00  0.00  0.00  0.00  0.00
  25-008_25-007           1.00   0.00  0.00  0.00  0.00  1.00  0.00  0.00  1.00  0.00
  25-014_25-008           1.00   0.00  0.00  0.00  0.00  0.00  0.00  1.00  0.00  0.00
  25-017_25-014           1.00   0.00  0.00  0.00  1.00  0.00  0.00  0.00  0.17  0.00
  25-019_25-017           1.00   0.00  0.00  0.00  1.00  0.00  0.00  0.00  0.01  0.00
  25-025_25-019           1.00   0.00  0.00  0.00  1.00  0.00  0.00  0.00  0.03  0.00
  25-033_25-025           1.00   0.00  0.00  0.00  1.00  0.00  0.00  0.00  0.85  0.00
  25-034_25-033           1.00   0.00  0.00  0.00  1.00  0.00  0.00  0.00  0.00  0.00
  25-035_25-034           1.00   0.00  0.00  0.00  1.00  0.00  0.00  0.00  0.86  0.00
  25-036_25-035           1.00   0.00  0.00  0.00  1.00  0.00  0.00  0.00  0.91  0.00
  25-037_25-036           1.00   0.00  0.00  0.00  1.00  0.00  0.00  0.00  0.99  0.00
  25-038_25-037           1.00   0.00  0.00  0.00  1.00  0.00  0.00  0.00  0.00  0.00
  25-039_25-038           1.00   0.00  0.00  0.00  1.00  0.00  0.00  0.00  0.88  0.00
  25-040_25-039           1.00   0.00  0.00  0.00  1.00  0.00  0.00  0.00  0.84  0.00
  25-041_25-008           1.00   0.00  0.00  0.00  0.00  0.00  0.00  1.00  0.00  0.00
  25-042_25-041           1.00   0.00  0.00  0.00  1.00  0.00  0.00  0.00  1.00  0.00
  25-043_25-042           1.00   0.00  0.00  0.00  0.00  0.00  0.00  1.00  0.00  0.00
  25-044_25-043           1.00   0.00  0.00  0.00  0.00  0.00  0.00  1.00  0.00  0.00
  25-045_25-044           1.00   0.00  0.00  0.00  0.00  0.00  0.00  1.00  0.00  0.00
  25-046_25-045           1.00   0.00  0.00  0.00  0.00  0.00  0.00  1.00  0.00  0.00
  25-047_25-046           1.00   0.00  0.00  0.00  0.00  0.00  0.00  1.00  0.00  0.00
  25-048_25-047           1.00   0.00  0.00  0.00  0.00  0.00  0.00  1.00  0.00  0.00
  25-048_25-049           1.76   0.00  0.00  0.00  0.00  1.00  0.00  0.00  1.00  0.00
  26-001_25-040           1.00   0.00  0.00  0.00  1.00  0.00  0.00  0.00  0.00  0.00
  26-002_26-001           1.00   0.00  0.00  0.00  1.00  0.00  0.00  0.00  0.60  0.00
  26-003_26-002           1.00   0.00  0.00  0.00  1.00  0.00  0.00  0.00  0.99  0.00
  26-004_26-003           1.00   0.00  0.00  0.00  1.00  0.00  0.00  0.00  0.00  0.00
  26-005_26-004           1.00   0.00  0.00  0.00  0.00  0.00  0.00  1.00  0.00  0.00
  26-006_26-005           1.00   0.00  0.00  0.00  0.97  0.00  0.00  0.03  0.07  0.00
  26-007_26-006           1.00   0.00  0.00  0.00  0.97  0.00  0.00  0.03  0.00  0.00
  26-016_26-007           1.00   0.00  0.00  0.00  1.00  0.00  0.00  0.00  0.91  0.00
  26-017_26-016           1.00   0.00  0.00  0.00  0.38  0.00  0.00  0.62  0.02  0.00
  27_022_27-021           1.00   0.00  0.00  0.00  0.00  0.00  0.00  1.00  0.00  0.00
  27-001_17-045           1.00   0.00  0.00  0.00  0.00  0.00  0.00  1.00  0.00  0.00
  27-003_27-001           1.00   0.00  0.00  0.00  1.00  0.00  0.00  0.00  0.02  0.00
  27-004_27-003           1.00   0.00  0.00  0.00  0.00  0.00  0.00  1.00  0.00  0.00
  27-020_27-003           1.00   0.00  0.00  0.00  1.00  0.00  0.00  0.00  0.82  0.00
  27-021_27-020           1.00   0.00  0.00  0.00  0.77  0.00  0.00  0.23  0.00  0.00
  27-023_27_022           1.00   0.00  0.00  0.00  0.00  0.00  0.00  1.00  0.00  0.00
  27-024_27-023           1.00   0.00  0.00  0.00  0.00  0.00  0.00  1.00  0.00  0.00
  27-025_27-024           1.00   0.00  0.00  0.00  0.00  0.00  0.00  1.00  0.00  0.00
  27-026_27-025           1.00   0.00  0.00  0.00  0.00  0.00  0.00  1.00  0.00  0.00
  27-027_27-026           1.00   0.00  0.00  0.00  0.00  0.00  0.00  1.00  0.00  0.00
  27-028_21-027A          1.00   0.00  0.00  0.00  0.00  0.00  0.00  1.00  0.00  0.00
  27-029_27-028           1.00   0.00  0.00  0.00  0.00  0.00  0.00  1.00  0.00  0.00
  27-030_27-029           1.00   0.00  0.00  0.00  0.00  0.00  0.00  1.00  0.00  0.00
  27-031_27-030           1.00   0.00  0.00  0.00  0.00  0.00  0.00  1.00  0.00  0.00
  27-032_27-031           1.00   0.00  0.00  0.00  0.00  0.00  0.00  1.00  0.00  0.00
  27-041_27-032           1.00   0.00  0.00  0.00  0.00  0.06  0.00  0.94  0.06  0.00
  27-042_27-041           1.00   0.00  0.00  0.00  0.00  0.00  0.00  1.00  0.00  0.00
  27-043_27-042           1.00   0.00  0.00  0.00  0.00  0.00  0.00  1.00  0.00  0.00
  27-044_27-043           1.00   0.00  0.00  0.00  0.00  0.00  0.00  1.00  0.00  0.00
  27-045_27-044           1.00   0.00  0.00  0.00  0.00  0.00  0.00  1.00  0.00  0.00
  27-046_27-045           1.00   0.00  0.00  0.00  0.00  0.00  0.00  1.00  0.00  0.00
  27-047_27-046           1.00   0.00  0.00  0.00  0.00  0.00  0.00  1.00  0.00  0.00
  CrickParallel1          2.45   0.00  0.00  0.00  1.00  0.00  0.00  0.00  0.27  0.00
  CrickParallel2          1.00   0.00  0.00  0.00  1.00  0.00  0.00  0.00  0.01  0.00
  DryBarrel1              2.28   0.00  0.00  0.00  1.00  0.00  0.00  0.00  0.01  0.00
  DryBarrel2              1.00   0.00  0.00  0.00  0.80  0.00  0.19  0.00  0.00  0.00
  DrySiphonDrop          13.14   0.00  0.00  0.00  0.99  0.00  0.00  0.00  0.27  0.00
  DrySiphonRace           1.00   0.00  0.00  0.00  1.00  0.00  0.00  0.00  0.00  0.00
  DrySiphonRise           2.11   0.00  0.01  0.00  0.99  0.00  0.00  0.00  0.00  0.00
  EQDivChamb_InfluentBox    1.00   0.01  0.00  0.00  0.99  0.00  0.00  0.00  0.00  0.00
  GMS_24in_NewPipe_Drop   20.99   0.05  0.74  0.00  0.13  0.07  0.00  0.00  0.95  0.00
  GMS_24in_NewPipe_Race    1.00   0.05  0.00  0.00  0.95  0.00  0.00  0.00  0.00  0.00
  GMS_24in_NewPipe_Rise    3.00   0.05  0.66  0.00  0.00  0.00  0.29  0.00  0.00  0.00
  HemmDrySiphonDrop       5.66   0.00  0.00  0.00  0.32  0.67  0.00  0.00  0.65  0.00
  HemmDrySiphonRace       1.00   0.00  0.00  0.00  1.00  0.00  0.00  0.00  0.00  0.00
  HemmDrySiphonRise       2.55   0.00  0.01  0.00  0.99  0.00  0.00  0.00  0.00  0.00
  HemmWetSiphonDrop       9.11   0.05  0.64  0.00  0.30  0.00  0.00  0.00  0.95  0.00
  HemmWetSiphonRace       1.00   0.05  0.00  0.00  0.95  0.00  0.00  0.00  0.00  0.00
  HemmWetSiphonRise       4.10   0.05  0.64  0.00  0.10  0.00  0.20  0.00  0.00  0.00
  WetBarrel1              2.53   0.05  0.75  0.00  0.20  0.00  0.00  0.00  0.83  0.00
  WetBarrel2              1.00   0.05  0.75  0.00  0.00  0.00  0.20  0.00  0.00  0.00
  WetSiphonDrop          17.86   0.04  0.52  0.00  0.44  0.00  0.00  0.00  0.72  0.00
  WetSiphonRace           1.00   0.04  0.00  0.00  0.96  0.00  0.00  0.00  0.00  0.00
  WetSiphonRise           2.30   0.04  0.49  0.00  0.07  0.00  0.40  0.00  0.00  0.00
  WWTP_Influent           4.76   0.00  0.00  0.00  0.00  1.00  0.00  0.00  0.39  0.00
  
  
  *************************
  Conduit Surcharge Summary
  *************************
  
  ----------------------------------------------------------------------------
                                                           Hours        Hours 
                         --------- Hours Full --------   Above Full   Capacity
  Conduit                Both Ends  Upstream  Dnstream   Normal Flow   Limited
  ----------------------------------------------------------------------------
  04-054_04-055               0.01      0.01      1.50      0.01         0.01
  04-055_18-033               1.50      1.50      5.90      0.01         0.01
  06-001_18-035               0.01      0.01      3.27      0.02         0.01
  06-003_06-002               0.01      7.39      0.01      6.58         0.01
  06-004_06-003               7.21      7.21      7.39      6.58         6.59
  09-001_09-100               6.46      6.74      6.46      7.02         6.46
  09-002_09-001               6.61      6.63      6.74      6.93         6.61
  09-006_09-002               6.63      6.74      6.63      7.08         6.63
  09-007_09-006               6.52      6.52      7.03      0.01         0.01
  09-008_09-007               6.22      6.22      6.44      0.06         0.04
  09-009_09-008               5.97      5.97      6.18      4.73         4.70
  09-009_09-099               5.49      5.49      5.97      4.50         4.47
  09-063_09-009               5.49      5.88      5.49      6.67         5.49
  09-072_09-063               5.78      5.81      5.88      6.05         5.74
  09-073_09-072               5.79      5.80      5.81      6.06         5.78
  09-074_09-073               5.55      5.55      5.80      4.93         4.90
  09-075_09-074               5.55      5.65      5.55      6.43         5.55
  09-076_09-075               5.65      5.96      5.65      7.08         5.65
  09-100_20-045               6.41      6.99      6.41     28.35         6.41
  11-003_18-029               5.61      5.61      5.63      4.57         4.49
  11-004_11-003               5.54      5.54      5.61      4.40         4.32
  11-005_11-004               5.48      5.48      5.54      4.50         4.48
  11-006_11-005               5.45      5.45      5.48      4.61         4.45
  11-007_11-006               5.41      5.41      5.45      4.57         4.37
  11-008_11-007               5.37      5.37      5.41      4.58         4.37
  11-009_11-008               5.34      5.34      5.37      4.70         4.47
  11-010_11-009               5.29      5.29      5.34      4.55         4.25
  11-012_11-010               5.23      5.23      5.29      4.68         4.44
  11-013_11-012               4.96      4.96      5.23      3.41         3.40
  11-014_11-013               4.96      5.05      4.96      5.76         4.94
  11-015_11-014               5.05      5.13      5.05      5.69         5.01
  11-015A_11-015              5.13      5.20      5.13      5.82         5.03
  11-016_11-015A              5.20      5.32      5.20      5.82         5.17
  11-017_11-016               5.68      6.11      5.77      5.77         5.68
  11-018_11-017               0.01      0.01      6.11      0.01         0.01
  11-019_11-018               0.01      0.01      0.01      5.61         0.01
  11-020_11-019               4.13      4.13      9.27      0.01         0.01
  11-021_11-020               3.89      7.38      3.89     10.59         3.89
  11-024_11-021               7.38      8.53      7.38     16.89         7.38
  11-031_11-032               6.16      6.16      6.45      4.27         4.11
  11-032_11-024               6.50      6.50      7.10      4.85         4.85
  11-034_11-031               5.90      5.90      6.16      4.88         4.89
  11-035_11-034               6.79      7.76      6.79     10.15         6.79
  11-036_11-035               7.76      8.18      7.76     10.33         7.76
  11-047A_11-047B             5.92      5.92      5.94      6.04         5.85
  11-047B_11-034              5.94      5.94      6.11      5.78         5.73
  11-047C_11-047A             5.84      5.84      5.84      6.26         5.81
  11-066_11-047C              5.72      5.72      5.82      0.01         0.01
  11-067_11-066               5.60      5.60      5.68      0.01         0.01
  11-068_11-067               5.41      5.54      5.42      4.09         3.71
  11-069_11-068               5.41      5.48      5.41      4.05         3.68
  11-070_11-069               5.40      5.43      5.40      4.05         3.75
  11-071_11-070               5.33      5.33      5.37      1.78         1.64
  11-075_11-071               5.23      5.23      5.26      2.06         1.76
  11-076_11-075               5.08      5.08      5.19      4.31         4.27
  11-083_11-076               4.98      4.98      5.06      4.31         4.25
  11-084_11-083               4.88      4.88      4.93      3.18         3.18
  11-109_11-084               3.90      3.90      4.51      0.01         0.01
  11-110_11-109               2.20      2.20      3.01      0.01         0.01
  11-111_11-110               0.79      0.79      2.20      0.01         0.01
  11-112_11-111               0.01      0.01      0.79      0.01         0.01
  12-001_11-016               4.85      4.85      5.32      0.01         0.01
  12-003_12-001               4.84      4.84      5.13      3.17         3.14
  12-004_12-003               4.66      4.66      4.84      3.07         3.05
  14-021_14-009               0.01      0.01      0.01      1.40         0.01
  14-022_14-021               0.01      0.01      0.01      2.37         0.01
  15-040_15-041               0.01      0.01      0.01      0.98         0.01
  16-059_16-058A              0.01      0.01      0.01     18.17         0.01
  18-029_18-030               5.63      5.63      5.78      2.85         2.92
  18-030_18-031               5.78      5.78      5.87      4.23         4.14
  18-031_18-033               5.87      5.87      5.90      4.51         4.34
  18-033_18-099               5.88      5.90      5.90      5.94         5.65
  18-034_18-037               5.90      5.91      5.93      5.98         5.51
  18-035_18-036               3.27      3.27     38.68      0.01         0.01
  18-036_18-037               4.11      4.11      4.88      0.01         0.01
  18-036_18-039A             10.10     30.51     10.10     45.01        10.10
  18-037_18-038               5.70      5.93      5.70      8.05         5.70
  18-038_18-039               5.61      5.70      5.61      7.77         5.31
  18-039_18-040               5.38      5.61      5.38      6.73         5.38
  18-039A_18-083              8.15     10.10      8.15     38.18         8.15
  18-040_18-041               4.98      5.38      4.98      6.77         4.98
  18-041_18-042               4.56      4.98      4.56      7.25         4.56
  18-042_18-043               3.57      4.56      3.57      7.30         3.57
  18-043_18-044               1.96      3.57      1.96      7.23         1.96
  18-082_18-079               0.01      4.11      0.01     38.69         0.01
  18-083_18-082               4.11      8.15      4.11     38.01         4.11
  18-099_18-034               5.88      5.90      5.91      5.99         5.65
  20-039_20-086               6.55      6.55      6.77      3.78         3.78
  20-040_20-039               6.44      6.44      6.48      0.01         0.01
  20-041_20-040               6.33      6.87      6.33      7.80         6.33
  20-042_20-041               6.40      6.40      6.87      5.52         5.55
  20-043_20-042               5.53      5.53      5.91      0.01         0.01
  20-044_20-043               5.04      5.21      5.04      5.43         5.04
  20-045_20-044               5.21      6.41      5.21      7.42         5.21
  20-083_11-036               8.18      8.40      8.18     10.12         8.18
  20-084_20-083               7.36      7.36      7.85      6.39         6.39
  20-085_20-084               7.06      7.06      7.36      1.93         1.85
  20-086_20-085               6.77      6.77      7.06      3.17         3.15
  21-070_21-071               3.40      3.40      4.98      0.01         0.01
  21-071_21-072               4.97      4.97      6.04      0.01         0.61
  21-072_21-073A              3.69      6.79      3.69     23.34         3.66
  21-073_21-074A              0.01      2.28      0.01      9.23         0.01
  21-073A_21-073              0.01      4.07      0.01     29.43         0.01
  21-074A_21-074              0.01      0.01      0.01      8.61         0.01
  21-076_21-070               0.01      0.01      1.00      0.01         0.01
  22-038_22-026              42.70     42.70     95.11      0.01         0.01
  24-003_24-003A              0.01      0.01      0.01      7.11         0.01
  24-003A_EQDivChamb          0.01      0.01      0.01      1.72         0.01
  26-005_26-004               0.01      8.53      0.01      9.89         0.01
  26-006_26-005               7.32      7.99      7.32      9.06         7.32
  26-007_26-006               7.68      8.31      7.68     10.79         7.68
  26-016_26-007               6.44      6.44      7.94      0.01         0.01
  26-017_26-016               3.75      3.75      5.95      0.01         0.01
  27-004_27-003               0.01      0.01      0.01      1.64         0.01
  CrickParallel1              8.90      8.90     95.21      0.01         0.01
  CrickParallel2              0.01      0.01     95.21      0.01         0.01
  DryBarrel1                 10.21     10.21     95.09      0.01         0.01
  DryBarrel2                  0.01      0.01     95.09      0.01         0.01
  DrySiphonDrop              48.98     48.98     94.86      0.01         0.01
  DrySiphonRace              94.86     94.86     94.87     94.57        94.60
  DrySiphonRise              28.46     28.46     94.84      0.01         0.01
  EQDivChamb_InfluentBox        0.01      0.01      0.01     20.23         0.01
  GMS_24in_NewPipe_Drop        0.01      0.01     90.74      0.01         0.01
  GMS_24in_NewPipe_Race       90.74     90.74     90.74     14.07        14.03
  GMS_24in_NewPipe_Rise        0.01      0.01     90.74      0.01         0.01
  HemmDrySiphonDrop          29.24     29.24     95.07      0.01         0.01
  HemmDrySiphonRace          95.07     95.07     95.07     95.28        95.07
  HemmDrySiphonRise          44.96     44.96     95.06      0.01         0.01
  HemmWetSiphonDrop           0.01      0.01     90.39      0.01         0.01
  HemmWetSiphonRace          90.38     90.39     90.38     20.91        20.73
  HemmWetSiphonRise           0.01      0.01     90.38      0.01         0.01
  WetBarrel1                  3.48      3.48     91.07      0.01         0.01
  WetBarrel2                  0.01      0.01     91.07      0.01         0.01
  WetSiphonDrop               4.38      4.38     91.63      0.01         0.01
  WetSiphonRace              91.63     91.63     91.63     35.75        35.72
  WetSiphonRise               0.01      0.01     91.62      0.01         0.01
  

  Analysis begun on:  Fri Mar  6 15:33:46 2026
  Analysis ended on:  Fri Mar  6 15:34:05 2026
  Total elapsed time: 00:00:19