
  EPA STORM WATER MANAGEMENT MODEL - VERSION 5.2 (Build 5.2.4)
  ------------------------------------------------------------

  
  ERROR 209: undefined object 1 at line 14 of [SUBCATCHMENT] section:
  44621601 1 44621601 23.148832 25.085397 566.601050 1.000000 0.000000

  
  ERROR 209: undefined object 1 at line 15 of [SUBCATCHMENT] section:
  44623701 1 44623701 11.352021 34.740966 396.653543 0.900000 0.000000

  
  ERROR 209: undefined object 3 at line 16 of [SUBCATCHMENT] section:
  44627703 3 44627703 16.254592 29.872302 474.737533 0.000000 0.000000

  
  ERROR 209: undefined object 3 at line 17 of [SUBCATCHMENT] section:
  44629501 3 44629501 5.656242 39.799039 280.183727 1.400000 0.000000

  
  ERROR 209: undefined object 2 at line 18 of [SUBCATCHMENT] section:
  44629801 2 44629801 24.236096 20.799347 579.724409 0.300000 0.000000

  
  ERROR 209: undefined object 2 at line 19 of [SUBCATCHMENT] section:
  44629851 2 44629851 19.711596 38.786511 522.637795 0.300000 0.000000

  
  ERROR 209: undefined object 2 at line 20 of [SUBCATCHMENT] section:
  44636401 2 44636401 0.647416 12.595420 94.488189 0.000000 0.000000

  
  ERROR 209: undefined object 3 at line 21 of [SUBCATCHMENT] section:
  45620903 3 45620903 8.055635 24.509202 334.317585 3.300000 0.000000

  
  ERROR 209: undefined object 1 at line 22 of [SUBCATCHMENT] section:
  45620952 1 45620952 0.000000 0.000000 559.055118 0.900000 0.000000

  
  ERROR 211: invalid number  at line 139 of [XSECT] section:
  45631202.2 RECT_OPEN 0.000000 9.842520 0.000000 0.000000

  
  ERROR 209: undefined object MONTHLY_POP_1 at line 169 of [DWF] section:
  44621601 FLOW 1128 MONTHLY_POP_1 HOURLY_POP_1 WEEKEND_POP_1

  
  ERROR 209: undefined object MONTHLY_POP_1 at line 170 of [DWF] section:
  44623701 FLOW 400 MONTHLY_POP_1 HOURLY_POP_1 WEEKEND_POP_1

  
  ERROR 209: undefined object MONTHLY_POP_1 at line 171 of [DWF] section:
  44627703 FLOW 2517 MONTHLY_POP_1 HOURLY_POP_1 WEEKEND_POP_1

  
  ERROR 209: undefined object MONTHLY_POP_1 at line 172 of [DWF] section:
  44629501 FLOW 1117 MONTHLY_POP_1 HOURLY_POP_1 WEEKEND_POP_1

  
  ERROR 209: undefined object MONTHLY_POP_1 at line 173 of [DWF] section:
  44629801 FLOW 2046 MONTHLY_POP_1 HOURLY_POP_1 WEEKEND_POP_1

  
  ERROR 209: undefined object MONTHLY_POP_1 at line 174 of [DWF] section:
  44636401 FLOW 187 MONTHLY_POP_1 HOURLY_POP_1 WEEKEND_POP_1

  
  ERROR 209: undefined object MONTHLY_POP_1 at line 175 of [DWF] section:
  45620903 FLOW 571 MONTHLY_POP_1 HOURLY_POP_1 WEEKEND_POP_1

  
  ERROR 209: undefined object MONTHLY_POP_1 at line 176 of [DWF] section:
  45620952 FLOW 456 MONTHLY_POP_1 HOURLY_POP_1 WEEKEND_POP_1


  Analysis begun on:  Fri Mar  6 15:04:24 2026
  Analysis ended on:  Fri Mar  6 15:04:24 2026
  Total elapsed time: < 1 sec