
  EPA STORM WATER MANAGEMENT MODEL - VERSION 5.2 (Build 5.2.4)
  ------------------------------------------------------------

   SW 1 0 9A1 'BROWARD COUNTY Multi FAMILY SITE - Runoff example # 47'A2 'RUNO 
  
  *************
  Element Count
  *************
  Number of rain gages ...... 1
  Number of subcatchments ... 4
  Number of nodes ........... 5
  Number of links ........... 4
  Number of pollutants ...... 5
  Number of land uses ....... 1
  
  
  *****************
  Pollutant Summary
  *****************
                               Ppt.      GW         Kdecay
  Name                 Units   Concen.   Concen.    1/days    CoPollutant
  -----------------------------------------------------------------------
  COD                   MG/L      5.00      0.00      0.00
  TOTSOL                MG/L      5.00      0.00      0.00
  TOTNIT                MG/L      0.30      0.00      0.00
  TSS                   MG/L      5.00      0.00      0.00
  PO4                   MG/L      0.00      0.00      0.00
  
  
  ***************
  Landuse Summary
  ***************
                         Sweeping   Maximum      Last
  Name                   Interval   Removal     Swept
  ---------------------------------------------------
  HOUSING                    0.00      0.00      0.00
  
  
  ****************
  Raingage Summary
  ****************
                                                      Data       Recording
  Name                 Data Source                    Type       Interval 
  ------------------------------------------------------------------------
  GAGE1                RainSeries1                    INTENSITY    5 min.
  
  
  ********************
  Subcatchment Summary
  ********************
  Name                       Area     Width   %Imperv    %Slope Rain Gage            Outlet              
  -----------------------------------------------------------------------------------------------------------
  CA-1                       5.00    600.00     39.00    2.7000 GAGE1                P001                
  CA-7                       1.60    200.00     48.60    2.7000 GAGE1                P005                
  CA-8                       4.57    500.00     46.70    2.7000 GAGE1                P009                
  CA-11                      3.58    600.00     47.00    2.7000 GAGE1                P011                
  
  
  ************
  Node Summary
  ************
                                           Invert      Max.    Ponded    External
  Name                 Type                 Elev.     Depth      Area    Inflow  
  -------------------------------------------------------------------------------
  P001                 JUNCTION              1.10     20.00       0.0
  P005                 JUNCTION              1.58     20.00       0.0
  P009                 JUNCTION              3.60     20.00       0.0
  P011                 JUNCTION              2.89     20.00       0.0
  Outlet               OUTFALL               0.00      4.00       0.0
  
  
  ************
  Link Summary
  ************
  Name             From Node        To Node          Type            Length    %Slope Roughness
  ---------------------------------------------------------------------------------------------
  P001             P001             Outlet           CONDUIT          220.0    0.5000    0.0150
  P005             P005             P001             CONDUIT          240.0    0.2000    0.0150
  P009             P009             P005             CONDUIT          505.0    0.4000    0.0240
  P011             P011             P005             CONDUIT          655.0    0.2000    0.0240
  
  
  *********************
  Cross Section Summary
  *********************
                                        Full     Full     Hyd.     Max.   No. of     Full
  Conduit          Shape               Depth     Area     Rad.    Width  Barrels     Flow
  ---------------------------------------------------------------------------------------
  P001             CIRCULAR             4.00    12.57     1.00     4.00        1    88.03
  P005             CIRCULAR             3.00     7.07     0.75     3.00        1    25.85
  P009             CIRCULAR             2.25     3.98     0.56     2.25        1    10.61
  P011             CIRCULAR             2.50     4.91     0.62     2.50        1     9.94
  
  
  ****************
  Analysis Options
  ****************
  Flow Units ............... CFS
  Process Models:
    Rainfall/Runoff ........ YES
    RDII ................... NO
    Snowmelt ............... NO
    Groundwater ............ NO
    Flow Routing ........... YES
    Ponding Allowed ........ NO
    Water Quality .......... YES
  Infiltration Method ...... GREEN_AMPT
  Flow Routing Method ...... DYNWAVE
  Surcharge Method ......... EXTRAN
  Starting Date ............ 07/15/1977 06:30:00
  Ending Date .............. 07/15/1977 10:15:00
  Antecedent Dry Days ...... 7.0
  Report Time Step ......... 00:01:00
  Wet Time Step ............ 00:05:00
  Dry Time Step ............ 00:05:00
  Routing Time Step ........ 30.00 sec
  Variable Time Step ....... YES
  Maximum Trials ........... 8
  Number of Threads ........ 1
  Head Tolerance ........... 0.005000 ft
  
  
  *********************
  Control Actions Taken
  *********************
   07/15/1977: 06:30:00 Link P001 setting changed to   0.00 by Control ValveOpen1
   07/15/1977: 07:00:01 Link P001 setting changed to   1.00 by Control ValveOpen2
   07/15/1977: 08:00:22 Link P001 setting changed to   0.00 by Control ValveOpen1
   07/15/1977: 08:30:22 Link P001 setting changed to   1.00 by Control ValveOpen2
   07/15/1977: 09:30:50 Link P001 setting changed to   0.00 by Control ValveOpen1
   07/15/1977: 10:01:20 Link P001 setting changed to   1.00 by Control ValveOpen2

  
  **************************        Volume         Depth
  Runoff Quantity Continuity     acre-feet        inches
  **************************     ---------       -------
  Total Precipitation ......         2.051         1.669
  Evaporation Loss .........         0.028         0.023
  Infiltration Loss ........         1.001         0.815
  Surface Runoff ...........         0.999         0.813
  Final Storage ............         0.047         0.038
  Continuity Error (%) .....        -1.159
  
  
  **************************           COD        TOTSOL        TOTNIT           TSS           PO4
  Runoff Quality Continuity            lbs           lbs           lbs           lbs           lbs
  **************************    ----------    ----------    ----------    ----------    ----------
  Initial Buildup ..........      5056.849     13379.165       125.370     13379.165       103.603
  Surface Buildup ..........        22.568        23.242         0.384        23.242         0.296
  Wet Deposition ...........        27.864        27.864         1.672        27.864         0.011
  Sweeping Removal .........         0.000         0.000         0.000         0.000         0.000
  Infiltration Loss ........        13.598        13.598         0.816        13.598         0.005
  BMP Removal ..............         0.000         0.000         0.000         0.000         0.000
  Surface Runoff ...........      3886.555     13415.984        36.453     13415.984        50.032
  Remaining Buildup ........      1207.071         0.632        90.154         0.632        53.872
  Continuity Error (%) .....         0.001         0.000         0.003         0.000         0.000
  
  
  **************************        Volume        Volume
  Flow Routing Continuity        acre-feet      10^6 gal
  **************************     ---------     ---------
  Dry Weather Inflow .......         0.000         0.000
  Wet Weather Inflow .......         0.996         0.324
  Groundwater Inflow .......         0.000         0.000
  RDII Inflow ..............         0.000         0.000
  External Inflow ..........         0.000         0.000
  External Outflow .........         0.992         0.323
  Flooding Loss ............         0.000         0.000
  Evaporation Loss .........         0.000         0.000
  Exfiltration Loss ........         0.000         0.000
  Initial Stored Volume ....         0.000         0.000
  Final Stored Volume ......         0.003         0.001
  Continuity Error (%) .....        -0.039
  
  
  **************************           COD        TOTSOL        TOTNIT           TSS           PO4
  Quality Routing Continuity           lbs           lbs           lbs           lbs           lbs
  **************************    ----------    ----------    ----------    ----------    ----------
  Dry Weather Inflow .......         0.000         0.000         0.000         0.000         0.000
  Wet Weather Inflow .......      3861.334     13220.435        36.247     13306.093        49.723
  Groundwater Inflow .......         0.000         0.000         0.000         0.000         0.000
  RDII Inflow ..............         0.000         0.000         0.000         0.000         0.000
  External Inflow ..........         0.000         0.000         0.000         0.000         0.000
  External Outflow .........      2787.197     10145.946        25.766     11782.703        35.645
  Flooding Loss ............         0.000         0.000         0.000         0.000         0.000
  Exfiltration Loss ........         0.000         0.000         0.000         0.000         0.000
  Mass Reacted .............      1161.053      3888.518        11.056      2059.100        15.125
  Initial Stored Mass ......         0.000         0.000         0.000         0.000         0.000
  Final Stored Mass ........         2.018         0.312         0.033         1.653         0.035
  Continuity Error (%) .....        -2.303        -6.160        -1.678        -4.038        -2.178
  
  
  ***************************
  Time-Step Critical Elements
  ***************************
  Link P001 (53.12%)
  
  
  ********************************
  Highest Flow Instability Indexes
  ********************************
  Link P005 (10)
  Link P001 (3)
  Link P011 (2)
  Link P009 (2)
  
  
  *********************************
  Most Frequent Nonconverging Nodes
  *********************************
  Convergence obtained at all time steps.
  
  
  *************************
  Routing Time Step Summary
  *************************
  Minimum Time Step           :     2.62 sec
  Average Time Step           :    24.82 sec
  Maximum Time Step           :    30.00 sec
  % of Time in Steady State   :     0.00
  Average Iterations per Step :     2.05
  % of Steps Not Converging   :     0.00
  Time Step Frequencies       :
     30.000 - 13.228 sec      :    99.82 %
     13.228 -  5.833 sec      :     0.00 %
      5.833 -  2.572 sec      :     0.18 %
      2.572 -  1.134 sec      :     0.00 %
      1.134 -  0.500 sec      :     0.00 %
  
  
  ***************************
  Subcatchment Runoff Summary
  ***************************
  
  ------------------------------------------------------------------------------------------------------------------------------
                            Total      Total      Total      Total     Imperv       Perv      Total       Total     Peak  Runoff
                           Precip      Runon       Evap      Infil     Runoff     Runoff     Runoff      Runoff   Runoff   Coeff
  Subcatchment                 in         in         in         in         in         in         in    10^6 gal      CFS
  ------------------------------------------------------------------------------------------------------------------------------
  CA-1                       1.67       0.00       0.02       0.89       0.64       0.09       0.73        0.10     5.54   0.435
  CA-7                       1.67       0.00       0.02       0.75       0.80       0.08       0.88        0.04     2.14   0.527
  CA-8                       1.67       0.00       0.02       0.78       0.76       0.08       0.84        0.10     5.77   0.504
  CA-11                      1.67       0.00       0.02       0.77       0.77       0.10       0.87        0.08     4.88   0.521
  
  
  ****************************
  Subcatchment Washoff Summary
  ****************************
  
  ------------------------------------------------------------------------------------------
                                 COD        TOTSOL        TOTNIT           TSS           PO4
  Subcatchment                   lbs           lbs           lbs           lbs           lbs
  ------------------------------------------------------------------------------------------
  CA-1                      1217.887      4548.544        10.637      4548.544        14.771
  CA-7                       443.846      1455.193         4.354      1455.193         5.929
  CA-8                      1229.942      4154.252        11.702      4154.252        16.017
  CA-11                      994.881      3257.996         9.760      3257.996        13.315
  ------------------------------------------------------------------------------------------
  System                    3886.555     13415.984        36.453     13415.984        50.032
  
  
  ******************
  Node Depth Summary
  ******************
  
  ---------------------------------------------------------------------------------
                                 Average  Maximum  Maximum  Time of Max    Reported
                                   Depth    Depth      HGL   Occurrence   Max Depth
  Node                 Type         Feet     Feet     Feet  days hr:min        Feet
  ---------------------------------------------------------------------------------
  P001                 JUNCTION     0.69     1.10     2.20     0  02:28        1.10
  P005                 JUNCTION     0.63     1.33     2.91     0  02:29        1.33
  P009                 JUNCTION     0.44     1.13     4.73     0  02:26        1.12
  P011                 JUNCTION     0.45     1.12     4.01     0  02:27        1.12
  Outlet               OUTFALL      0.44     1.10     1.10     0  02:28        1.10
  
  
  *******************
  Node Inflow Summary
  *******************
  
  -------------------------------------------------------------------------------------------------
                                  Maximum  Maximum                  Lateral       Total        Flow
                                  Lateral    Total  Time of Max      Inflow      Inflow     Balance
                                   Inflow   Inflow   Occurrence      Volume      Volume       Error
  Node                 Type           CFS      CFS  days hr:min    10^6 gal    10^6 gal     Percent
  -------------------------------------------------------------------------------------------------
  P001                 JUNCTION      5.54    14.52     0  02:28      0.0981       0.325      -0.066
  P005                 JUNCTION      2.14    11.28     0  02:26       0.038       0.229       0.986
  P009                 JUNCTION      5.77     5.77     0  02:25       0.104       0.104      -0.490
  P011                 JUNCTION      4.88     4.88     0  02:25      0.0843      0.0843      -0.594
  Outlet               OUTFALL       0.00    14.47     0  02:28           0       0.323       0.000
  
  
  **********************
  Node Surcharge Summary
  **********************
  
  No nodes were surcharged.
  
  
  *********************
  Node Flooding Summary
  *********************
  
  No nodes were flooded.
  
  
  ***********************
  Outfall Loading Summary
  ***********************
  
  ---------------------------------------------------------------------------------------------------------------------------------
                         Flow       Avg       Max       Total         Total         Total         Total         Total         Total
                         Freq      Flow      Flow      Volume           COD        TOTSOL        TOTNIT           TSS           PO4
  Outfall Node           Pcnt       CFS       CFS    10^6 gal           lbs           lbs           lbs           lbs           lbs
  ---------------------------------------------------------------------------------------------------------------------------------
  Outlet                66.54      6.26     14.47       0.323      2790.808     10198.845        25.789     11882.660        35.679
  ---------------------------------------------------------------------------------------------------------------------------------
  System                66.54      6.26     14.47       0.323      2790.808     10198.845        25.789     11882.660        35.679
  
  
  ********************
  Link Flow Summary
  ********************
  
  -----------------------------------------------------------------------------
                                 Maximum  Time of Max   Maximum    Max/    Max/
                                  |Flow|   Occurrence   |Veloc|    Full    Full
  Link                 Type          CFS  days hr:min    ft/sec    Flow   Depth
  -----------------------------------------------------------------------------
  P001                 CONDUIT     14.47     0  02:28      5.17    0.16    0.27
  P005                 CONDUIT     10.33     0  02:29      3.87    0.40    0.40
  P009                 CONDUIT      5.32     0  02:26      2.57    0.50    0.53
  P011                 CONDUIT      4.12     0  02:27      1.78    0.41    0.49
  
  
  ***************************
  Flow Classification Summary
  ***************************
  
  -------------------------------------------------------------------------------------
                      Adjusted    ---------- Fraction of Time in Flow Class ---------- 
                       /Actual         Up    Down  Sub   Sup   Up    Down  Norm  Inlet 
  Conduit               Length    Dry  Dry   Dry   Crit  Crit  Crit  Crit  Ltd   Ctrl  
  -------------------------------------------------------------------------------------
  P001                    1.00   0.02  0.00  0.00  0.60  0.38  0.00  0.00  0.01  0.00
  P005                    1.00   0.02  0.00  0.00  0.98  0.00  0.00  0.00  0.16  0.00
  P009                    1.00   0.02  0.00  0.00  0.98  0.00  0.00  0.00  0.83  0.00
  P011                    1.00   0.02  0.00  0.00  0.98  0.00  0.00  0.00  0.85  0.00
  
  
  *************************
  Conduit Surcharge Summary
  *************************
  
  No conduits were surcharged.
  
  
  ***************************
  Link Pollutant Load Summary
  ***************************
  
  ------------------------------------------------------------------------------------------
                                 COD        TOTSOL        TOTNIT           TSS           PO4
  Link                           lbs           lbs           lbs           lbs           lbs
  ------------------------------------------------------------------------------------------
  P001                      2790.808     1.020e+04        25.789     1.188e+04        35.679
  P005                      1574.756      5372.093        15.264      6835.173        21.010
  P009                        65.805       263.167         0.612      2749.557         0.849
  P011                      1102.602      4539.396        10.439      4502.969        14.541
  

  Analysis begun on:  Fri Mar  6 15:34:05 2026
  Analysis ended on:  Fri Mar  6 15:34:05 2026
  Total elapsed time: < 1 sec