
  EPA STORM WATER MANAGEMENT MODEL - VERSION 5.2 (Build 5.2.4)
  ------------------------------------------------------------

   Example 1 
  
  ****************
  Analysis Options
  ****************
  Flow Units ............... CFS
  Process Models:
    Rainfall/Runoff ........ YES
    RDII ................... NO
    Snowmelt ............... NO
    Groundwater ............ NO
    Flow Routing ........... YES
    Ponding Allowed ........ NO
    Water Quality .......... YES
  Infiltration Method ...... HORTON
  Flow Routing Method ...... KINWAVE
  Starting Date ............ 01/01/1998 00:00:00
  Ending Date .............. 01/02/1998 12:00:00
  Antecedent Dry Days ...... 5.0
  Report Time Step ......... 01:00:00
  Wet Time Step ............ 00:15:00
  Dry Time Step ............ 01:00:00
  Routing Time Step ........ 60.00 sec
  
  
  **************************        Volume         Depth
  Runoff Quantity Continuity     acre-feet        inches
  **************************     ---------       -------
  Total Precipitation ......        15.679         2.650
  Evaporation Loss .........         0.000         0.000
  Infiltration Loss ........         9.843         1.664
  Surface Runoff ...........         5.263         0.890
  Final Storage ............         0.619         0.105
  Continuity Error (%) .....        -0.288
  
  
  **************************           TSS          Lead
  Runoff Quality Continuity            lbs           lbs
  **************************    ----------    ----------
  Initial Buildup ..........      5985.268         0.000
  Surface Buildup ..........        41.173         0.000
  Wet Deposition ...........         0.000         0.000
  Sweeping Removal .........         0.000         0.000
  Infiltration Loss ........         0.000         0.000
  BMP Removal ..............         0.000         0.000
  Surface Runoff ...........         0.109         0.000
  Remaining Buildup ........      6026.332         0.000
  Continuity Error (%) .....         0.000         0.000
  
  
  **************************        Volume        Volume
  Flow Routing Continuity        acre-feet      10^6 gal
  **************************     ---------     ---------
  Dry Weather Inflow .......         0.000         0.000
  Wet Weather Inflow .......         5.256         1.713
  Groundwater Inflow .......         0.000         0.000
  RDII Inflow ..............         0.000         0.000
  External Inflow ..........         0.000         0.000
  External Outflow .........         5.202         1.695
  Flooding Loss ............         0.035         0.011
  Evaporation Loss .........         0.000         0.000
  Exfiltration Loss ........         0.000         0.000
  Initial Stored Volume ....         0.000         0.000
  Final Stored Volume ......         0.008         0.003
  Continuity Error (%) .....         0.196
  
  
  **************************           TSS          Lead
  Quality Routing Continuity           lbs           lbs
  **************************    ----------    ----------
  Dry Weather Inflow .......         0.000         0.000
  Wet Weather Inflow .......         0.109         0.000
  Groundwater Inflow .......         0.000         0.000
  RDII Inflow ..............         0.000         0.000
  External Inflow ..........         0.000         0.000
  External Outflow .........         0.056         0.000
  Flooding Loss ............         0.001         0.000
  Exfiltration Loss ........         0.000         0.000
  Mass Reacted .............         0.052         0.000
  Initial Stored Mass ......         0.000         0.000
  Final Stored Mass ........         0.000         0.000
  Continuity Error (%) .....         0.159         0.214
  
  
  ********************************
  Highest Flow Instability Indexes
  ********************************
  All links are stable.
  
  
  *************************
  Routing Time Step Summary
  *************************
  Minimum Time Step           :    60.00 sec
  Average Time Step           :    60.00 sec
  Maximum Time Step           :    60.00 sec
  % of Time in Steady State   :     0.00
  Average Iterations per Step :     1.39
  % of Steps Not Converging   :     0.00
  
  
  ***************************
  Subcatchment Runoff Summary
  ***************************
  
  ------------------------------------------------------------------------------------------------------------------------------
                            Total      Total      Total      Total     Imperv       Perv      Total       Total     Peak  Runoff
                           Precip      Runon       Evap      Infil     Runoff     Runoff     Runoff      Runoff   Runoff   Coeff
  Subcatchment                 in         in         in         in         in         in         in    10^6 gal      CFS
  ------------------------------------------------------------------------------------------------------------------------------
  1                          2.65       0.00       0.00       1.04       1.17       0.29       1.46        0.40     3.93   0.553
  2                          2.65       0.00       0.00       1.32       1.17       0.01       1.18        0.32     2.04   0.447
  3                          2.65       0.00       0.00       1.31       1.23       0.02       1.25        0.17     1.49   0.472
  4                          2.65       0.00       0.00       1.31       1.23       0.02       1.25        0.17     1.49   0.472
  5                          2.65       0.00       0.00       1.32       1.12       0.01       1.13        0.46     2.32   0.427
  6                          2.65       0.00       0.00       2.38       0.25       0.02       0.27        0.09     1.34   0.102
  7                          2.65       0.00       0.00       2.36       0.26       0.03       0.29        0.03     0.62   0.110
  8                          2.65       0.00       0.00       2.37       0.26       0.02       0.27        0.07     1.21   0.104
  
  
  ****************************
  Subcatchment Washoff Summary
  ****************************
  
  ------------------------------------------------
                                 TSS          Lead
  Subcatchment                   lbs           lbs
  ------------------------------------------------
  1                            0.031         0.000
  2                            0.015         0.000
  3                            0.013         0.000
  4                            0.008         0.000
  5                            0.037         0.000
  6                            0.002         0.000
  7                            0.001         0.000
  8                            0.002         0.000
  ------------------------------------------------
  System                       0.109         0.000
  
  
  ******************
  Node Depth Summary
  ******************
  
  ---------------------------------------------------------------------------------
                                 Average  Maximum  Maximum  Time of Max    Reported
                                   Depth    Depth      HGL   Occurrence   Max Depth
  Node                 Type         Feet     Feet     Feet  days hr:min        Feet
  ---------------------------------------------------------------------------------
  9                    JUNCTION     0.14     0.52  1000.52     0  04:01        0.52
  10                   JUNCTION     0.27     3.00   998.00     0  03:35        3.00
  13                   JUNCTION     0.09     0.32   995.32     0  04:01        0.31
  14                   JUNCTION     0.10     0.36   990.36     0  04:02        0.36
  15                   JUNCTION     0.23     0.65   987.65     0  04:01        0.65
  16                   JUNCTION     0.26     0.83   985.83     0  04:02        0.82
  17                   JUNCTION     0.27     0.88   980.88     0  04:03        0.87
  18                   JUNCTION     0.26     0.83   975.83     0  04:03        0.81
  19                   JUNCTION     0.03     0.20  1010.20     0  04:01        0.20
  20                   JUNCTION     0.03     0.20  1005.20     0  04:01        0.19
  21                   JUNCTION     1.23     2.00   992.00     0  03:46        2.00
  22                   JUNCTION     1.18     1.58   988.58     0  03:44        1.57
  23                   JUNCTION     0.06     0.33   990.33     0  04:01        0.33
  24                   JUNCTION     0.27     0.88   984.88     0  04:02        0.87
  
  
  *******************
  Node Inflow Summary
  *******************
  
  -------------------------------------------------------------------------------------------------
                                  Maximum  Maximum                  Lateral       Total        Flow
                                  Lateral    Total  Time of Max      Inflow      Inflow     Balance
                                   Inflow   Inflow   Occurrence      Volume      Volume       Error
  Node                 Type           CFS      CFS  days hr:min    10^6 gal    10^6 gal     Percent
  -------------------------------------------------------------------------------------------------
  9                    JUNCTION      3.93     3.93     0  04:01       0.397       0.397       0.000
  10                   JUNCTION      2.04     5.96     0  04:01       0.321       0.718       0.000
  13                   JUNCTION      1.49     1.49     0  04:01        0.17        0.17       0.000
  14                   JUNCTION      0.00     1.47     0  04:02           0        0.17       0.000
  15                   JUNCTION      2.32     3.78     0  04:01        0.46        0.63       0.000
  16                   JUNCTION      0.00    10.48     0  04:02           0        1.54       0.000
  17                   JUNCTION      0.00    11.79     0  04:03           0        1.62       0.000
  18                   JUNCTION      1.21    12.89     0  04:03      0.0744         1.7       0.000
  19                   JUNCTION      0.62     0.62     0  04:01      0.0315      0.0315       0.000
  20                   JUNCTION      0.00     0.62     0  04:01           0      0.0315       0.000
  21                   JUNCTION      0.00     5.35     0  03:44           0       0.738       0.000
  22                   JUNCTION      1.49     6.72     0  04:01        0.17       0.908       0.000
  23                   JUNCTION      1.34     1.34     0  04:01      0.0882      0.0882       0.000
  24                   JUNCTION      0.00    11.80     0  04:02           0        1.62       0.000
  
  
  *********************
  Node Flooding Summary
  *********************
  
  Flooding refers to all water that overflows a node, whether it ponds or not.
  --------------------------------------------------------------------------
                                                             Total   Maximum
                                 Maximum   Time of Max       Flood    Ponded
                        Hours       Rate    Occurrence      Volume    Volume
  Node                 Flooded       CFS   days hr:min    10^6 gal  1000 ftł
  --------------------------------------------------------------------------
  10                      0.63      1.33      0  04:01       0.011     0.000
  
  
  ********************
  Link Flow Summary
  ********************
  
  -----------------------------------------------------------------------------
                                 Maximum  Time of Max   Maximum    Max/    Max/
                                  |Flow|   Occurrence   |Veloc|    Full    Full
  Link                 Type          CFS  days hr:min    ft/sec    Flow   Depth
  -----------------------------------------------------------------------------
  1                    CONDUIT      3.92     0  04:01      7.27    0.26    0.35
  4                    CONDUIT      0.62     0  04:01      5.69    0.08    0.20
  5                    CONDUIT      0.61     0  04:02      8.40    0.05    0.15
  6                    CONDUIT      4.91     0  03:44      6.92    1.06    1.00
  7                    CONDUIT      5.33     0  03:44      7.11    0.18    0.29
  8                    CONDUIT      6.72     0  04:02      6.56    0.28    0.36
  10                   CONDUIT     11.76     0  04:03      9.60    0.36    0.41
  11                   CONDUIT      1.47     0  04:02      5.48    0.10    0.21
  12                   CONDUIT      1.47     0  04:03      4.57    0.12    0.24
  13                   CONDUIT      3.77     0  04:02      5.13    0.39    0.43
  14                   CONDUIT      1.33     0  04:02      5.94    0.23    0.33
  15                   CONDUIT     10.47     0  04:02      8.57    0.36    0.41
  16                   CONDUIT     11.79     0  04:03      8.85    0.40    0.44
  
  
  *************************
  Conduit Surcharge Summary
  *************************
  
  ----------------------------------------------------------------------------
                                                           Hours        Hours 
                         --------- Hours Full --------   Above Full   Capacity
  Conduit                Both Ends  Upstream  Dnstream   Normal Flow   Limited
  ----------------------------------------------------------------------------
  6                           0.63      0.63      0.63      0.62         0.63
  
  
  ***************************
  Link Pollutant Load Summary
  ***************************
  
  ------------------------------------------------
                                 TSS          Lead
  Link                           lbs           lbs
  ------------------------------------------------
  1                            0.031         0.000
  4                            0.001         0.000
  5                            0.001         0.000
  6                            0.046         0.000
  7                            0.047         0.000
  8                            0.055         0.000
  10                           0.054         0.000
  11                           0.013         0.000
  12                           0.013         0.000
  13                           0.050         0.000
  14                           0.002         0.000
  15                           0.052         0.000
  16                           0.054         0.000
  

  Analysis begun on:  Fri Mar  6 15:34:11 2026
  Analysis ended on:  Fri Mar  6 15:34:11 2026
  Total elapsed time: < 1 sec