
  EPA STORM WATER MANAGEMENT MODEL - VERSION 5.2 (Build 5.2.4)
  ------------------------------------------------------------

  
  ERROR 205: invalid keyword MAX_PROCESSORS at line 32 of [OPTION] section:
  MAX_PROCESSORS
  
  ERROR 205: invalid keyword BYPASS at line 33 of [OPTION] section:
  BYPASS
  
  ERROR 205: invalid keyword ThetaStorage at line 34 of [OPTION] section:
  ThetaStorage
  
  ERROR 205: invalid keyword MAX_ITERATIONS at line 35 of [OPTION] section:
  MAX_ITERATIONS
  
  ERROR 205: invalid keyword MIN_ITERATIONS at line 36 of [OPTION] section:
  MIN_ITERATIONS
  
  ERROR 205: invalid keyword TOLERANCE at line 37 of [OPTION] section:
  TOLERANCE
  
  ERROR 205: invalid keyword RELAXATION at line 38 of [OPTION] section:
  RELAXATION
  
  ERROR 205: invalid keyword AREAWEIGHT at line 39 of [OPTION] section:
  AREAWEIGHT
  
  ERROR 205: invalid keyword HYDRAULICWEIGHT at line 40 of [OPTION] section:
  HYDRAULICWEIGHT
  
  ERROR 205: invalid keyword DWF_GLOBAL at line 41 of [OPTION] section:
  DWF_GLOBAL
  
  ERROR 205: invalid keyword RDII_GLOBAL at line 42 of [OPTION] section:
  RDII_GLOBAL
  
  ERROR 205: invalid keyword SaveAllData at line 44 of [OPTION] section:
  SaveAllData

  Analysis begun on:  Fri Mar  6 15:34:11 2026
  Analysis ended on:  Fri Mar  6 15:34:11 2026
  Total elapsed time: < 1 sec