
  EPA STORM WATER MANAGEMENT MODEL - VERSION 5.2 (Build 5.2.4)
  ------------------------------------------------------------

  SCE Site Old Port Road Full Water Balance RUN 
  WARNING 02: maximum depth increased for Node 3
  WARNING 02: maximum depth increased for Node 1Pc
  WARNING 02: maximum depth increased for Node 9
  WARNING 02: maximum depth increased for Node 13
  WARNING 02: maximum depth increased for Node Old_Port_Rd_pit
  WARNING 02: maximum depth increased for Node SINK
  
  ****************
  Analysis Options
  ****************
  Flow Units ............... LPS
  Process Models:
    Rainfall/Runoff ........ YES
    RDII ................... NO
    Snowmelt ............... NO
    Groundwater ............ NO
    Flow Routing ........... YES
    Ponding Allowed ........ YES
    Water Quality .......... NO
  Infiltration Method ...... HORTON
  Flow Routing Method ...... DYNWAVE
  Surcharge Method ......... EXTRAN
  Starting Date ............ 01/01/1990 00:00:00
  Ending Date .............. 12/31/1990 06:00:00
  Antecedent Dry Days ...... 0.0
  Report Time Step ......... 00:15:00
  Wet Time Step ............ 00:05:00
  Dry Time Step ............ 00:05:00
  Routing Time Step ........ 5.00 sec
  Variable Time Step ....... YES
  Maximum Trials ........... 8
  Number of Threads ........ 1
  Head Tolerance ........... 0.001500 m
  
  
  *********************
  Rainfall File Summary
  *********************
  Station    First        Last         Recording   Periods    Periods    Periods
  ID         Date         Date         Frequency  w/Precip    Missing    Malfunc.
  -------------------------------------------------------------------------------
  
  
  ERROR 317: cannot open rainfall data file D:\2017\reswmmuserspumpingreusewaterontoasubcatchment\KEMBLA_1990_swmm.txt.

  Analysis begun on:  Fri Mar  6 15:34:11 2026
  Analysis ended on:  Fri Mar  6 15:34:11 2026
  Total elapsed time: < 1 sec