
  EPA STORM WATER MANAGEMENT MODEL - VERSION 5.2 (Build 5.2.4)
  ------------------------------------------------------------

  Scenario Run :  BASE 
  Testsystem 
  5.0.0015 - 5.0.021 
  
  *************
  Element Count
  *************
  Number of rain gages ...... 1
  Number of subcatchments ... 0
  Number of nodes ........... 24
  Number of links ........... 23
  Number of pollutants ...... 0
  Number of land uses ....... 0
  
  
  ****************
  Raingage Summary
  ****************
                                                      Data       Recording
  Name                 Data Source                    Type       Interval 
  ------------------------------------------------------------------------
  1                    EULER                          VOLUME     1440 min.
  
  
  ************
  Node Summary
  ************
                                           Invert      Max.    Ponded    External
  Name                 Type                 Elev.     Depth      Area    Inflow  
  -------------------------------------------------------------------------------
  733                  JUNCTION            103.67      3.67     100.0
  734                  JUNCTION            103.51      3.31     100.0
  735                  JUNCTION            103.23      3.44     100.0
  736                  JUNCTION            102.84      3.36     100.0
  737                  JUNCTION            102.41      3.33     100.0
  738                  JUNCTION            101.99      3.23     100.0
  739                  JUNCTION            101.56      3.20     100.0
  740                  JUNCTION            101.25      3.31     100.0
  741                  JUNCTION            101.52      3.00     100.0
  742                  JUNCTION            101.98      3.69     100.0
  743                  JUNCTION            100.92      3.91     100.0
  744                  JUNCTION            100.51      3.61     100.0
  745                  JUNCTION            101.05      3.56     100.0
  746                  JUNCTION            100.63      3.47     100.0
  747                  JUNCTION            100.16      3.34     100.0
  748                  JUNCTION             99.89      3.16     100.0
  749                  JUNCTION             99.56      3.17     100.0
  750                  JUNCTION             99.29      3.53     100.0
  751                  JUNCTION             99.09      3.11     100.0
  RRKA                 JUNCTION             97.20      4.80     100.0
  TBA                  JUNCTION             99.05      3.15     100.0
  TBB                  JUNCTION             98.90      3.30     100.0
  754                  OUTFALL              98.87      0.60       0.0
  RRKB                 OUTFALL              97.05      2.20       0.0
  
  
  ************
  Link Summary
  ************
  Name             From Node        To Node          Type            Length    %Slope Roughness
  ---------------------------------------------------------------------------------------------
  733              733              735              CONDUIT           39.9    1.1028    0.0130
  734              734              735              CONDUIT           25.1    1.1156    0.0130
  735              735              736              CONDUIT           38.3    1.0183    0.0130
  736              736              737              CONDUIT           40.5    1.0618    0.0130
  737              737              738              CONDUIT           43.2    0.9723    0.0130
  738              738              739              CONDUIT           42.1    1.0214    0.0130
  739              739              740              CONDUIT           30.0    1.0334    0.0130
  740              740              743              CONDUIT           36.0    0.9167    0.0130
  741              741              743              CONDUIT           57.5    1.0435    0.0130
  742              742              743              CONDUIT           50.7    2.0912    0.0130
  743              743              744              CONDUIT           38.3    1.0706    0.0130
  744              744              747              CONDUIT           34.8    1.0058    0.0130
  745              745              746              CONDUIT           41.7    1.0072    0.0130
  746              746              747              CONDUIT           42.4    1.1086    0.0130
  747              747              748              CONDUIT           29.1    0.9347    0.0130
  748              748              749              CONDUIT           28.0    1.1822    0.0130
  749              749              750              CONDUIT           13.2    2.0383    0.0130
  750              750              751              CONDUIT           30.1    0.6567    0.0130
  751              751              TBA              CONDUIT            5.0    0.8000    0.0130
  RRKA1            RRKA             RRKB             CONDUIT           30.0    0.5000    0.0130
  TBB              TBB              RRKA             CONDUIT            2.5    4.0032    0.0130
  TBDR             TBA              754              CONDUIT           31.7    0.5584    0.0130
  TBWR             TBA              TBB              WEIR        
  
  
  *********************
  Cross Section Summary
  *********************
                                        Full     Full     Hyd.     Max.   No. of     Full
  Conduit          Shape               Depth     Area     Rad.    Width  Barrels     Flow
  ---------------------------------------------------------------------------------------
  733              CIRCULAR             0.30     0.07     0.07     0.30        1   101.56
  734              CIRCULAR             0.30     0.07     0.07     0.30        1   102.14
  735              CIRCULAR             0.30     0.07     0.07     0.30        1    97.59
  736              CIRCULAR             0.30     0.07     0.07     0.30        1    99.65
  737              CIRCULAR             0.30     0.07     0.07     0.30        1    95.36
  738              CIRCULAR             0.30     0.07     0.07     0.30        1    97.74
  739              CIRCULAR             0.30     0.07     0.07     0.30        1    98.31
  740              CIRCULAR             0.30     0.07     0.07     0.30        1    92.59
  741              CIRCULAR             0.30     0.07     0.07     0.30        1    98.79
  742              CIRCULAR             0.30     0.07     0.07     0.30        1   139.85
  743              CIRCULAR             0.35     0.10     0.09     0.35        1   150.93
  744              CIRCULAR             0.35     0.10     0.09     0.35        1   146.30
  745              CIRCULAR             0.30     0.07     0.07     0.30        1    97.06
  746              CIRCULAR             0.30     0.07     0.07     0.30        1   101.82
  747              CIRCULAR             0.40     0.13     0.10     0.40        1   201.36
  748              CIRCULAR             0.40     0.13     0.10     0.40        1   226.45
  749              CIRCULAR             0.40     0.13     0.10     0.40        1   297.34
  750              CIRCULAR             0.60     0.28     0.15     0.60        1   497.62
  751              CIRCULAR             0.60     0.28     0.15     0.60        1   549.23
  RRKA1            CIRCULAR             2.20     3.80     0.55     2.20        1 13880.79
  TBB              CIRCULAR             0.60     0.28     0.15     0.60        1  1228.59
  TBDR             CIRCULAR             0.60     0.28     0.15     0.60        1   458.84
  
  
  ****************
  Analysis Options
  ****************
  Flow Units ............... LPS
  Process Models:
    Rainfall/Runoff ........ YES
    RDII ................... NO
    Snowmelt ............... NO
    Groundwater ............ NO
    Flow Routing ........... YES
    Ponding Allowed ........ YES
    Water Quality .......... NO
  Flow Routing Method ...... DYNWAVE
  Surcharge Method ......... EXTRAN
  Starting Date ............ 06/01/2002 12:00:00
  Ending Date .............. 06/01/2002 15:00:00
  Antecedent Dry Days ...... 0.0
  Report Time Step ......... 00:01:00
  Routing Time Step ........ 1.00 sec
  Variable Time Step ....... YES
  Maximum Trials ........... 4
  Number of Threads ........ 1
  Head Tolerance ........... 0.010000 m
  
  
  ERROR 351: cannot open routing interface file C:\Documents and Settings\Robert E Dickinson\Desktop\Inflow.txt.
  
  *********************
  Control Actions Taken
  *********************


  Analysis begun on:  Fri Mar  6 15:34:11 2026
  Analysis ended on:  Fri Mar  6 15:34:11 2026
  Total elapsed time: < 1 sec