
  EPA STORM WATER MANAGEMENT MODEL - VERSION 5.2 (Build 5.2.4)
  ------------------------------------------------------------

  'EXTRAN USER''S MANUAL EXAMPLE 3' ; 
  'BASIC PIPE SYSTEM WITH SUMP ORIFICE AT JUNCTION 82309 FROM FIG 3-3' ; 
  
  ****************
  Analysis Options
  ****************
  Flow Units ............... CFS
  Process Models:
    Rainfall/Runoff ........ NO
    RDII ................... NO
    Snowmelt ............... NO
    Groundwater ............ NO
    Flow Routing ........... YES
    Ponding Allowed ........ NO
    Water Quality .......... NO
  Flow Routing Method ...... KINWAVE
  Starting Date ............ 01/01/2002 00:00:00
  Ending Date .............. 01/01/2002 08:00:00
  Antecedent Dry Days ...... 0.0
  Report Time Step ......... 00:00:30
  Routing Time Step ........ 30.00 sec
  
  
  **************************        Volume        Volume
  Flow Routing Continuity        acre-feet      10^6 gal
  **************************     ---------     ---------
  Dry Weather Inflow .......         0.000         0.000
  Wet Weather Inflow .......         0.000         0.000
  Groundwater Inflow .......         0.000         0.000
  RDII Inflow ..............         0.000         0.000
  External Inflow ..........        12.396         4.040
  External Outflow .........        12.690         4.135
  Flooding Loss ............         0.000         0.000
  Evaporation Loss .........         0.000         0.000
  Exfiltration Loss ........         0.000         0.000
  Initial Stored Volume ....         0.000         0.000
  Final Stored Volume ......         0.024         0.008
  Continuity Error (%) .....        -2.564
  
  
  ********************************
  Highest Flow Instability Indexes
  ********************************
  Link 1030 (1)
  
  
  *************************
  Routing Time Step Summary
  *************************
  Minimum Time Step           :    30.00 sec
  Average Time Step           :    30.00 sec
  Maximum Time Step           :    30.00 sec
  % of Time in Steady State   :     0.00
  Average Iterations per Step :     1.51
  % of Steps Not Converging   :     0.00
  
  
  ******************
  Node Depth Summary
  ******************
  
  ---------------------------------------------------------------------------------
                                 Average  Maximum  Maximum  Time of Max    Reported
                                   Depth    Depth      HGL   Occurrence   Max Depth
  Node                 Type         Feet     Feet     Feet  days hr:min        Feet
  ---------------------------------------------------------------------------------
  81009                JUNCTION     1.00     2.62   130.82     0  00:15        2.62
  81309                JUNCTION     1.17     2.94   120.44     0  03:04        2.94
  10309                JUNCTION     1.07     2.20   103.80     0  03:24        2.20
  15009                JUNCTION     1.20     2.92   114.42     0  03:11        2.92
  16009                JUNCTION     1.17     2.55   104.55     0  03:23        2.55
  10208                OUTFALL      0.99     1.99    91.89     0  03:32        1.99
  
  
  *******************
  Node Inflow Summary
  *******************
  
  -------------------------------------------------------------------------------------------------
                                  Maximum  Maximum                  Lateral       Total        Flow
                                  Lateral    Total  Time of Max      Inflow      Inflow     Balance
                                   Inflow   Inflow   Occurrence      Volume      Volume       Error
  Node                 Type           CFS      CFS  days hr:min    10^6 gal    10^6 gal     Percent
  -------------------------------------------------------------------------------------------------
  81009                JUNCTION     50.00    50.00     0  00:15        4.04        4.04       0.000
  81309                JUNCTION      0.00    53.82     0  03:04           0        4.07       0.000
  10309                JUNCTION      0.00    54.03     0  03:24           0         4.1       0.000
  15009                JUNCTION      0.00    53.32     0  03:11           0        4.09       0.000
  16009                JUNCTION      0.00    54.07     0  03:23           0         4.1       0.000
  10208                OUTFALL       0.00    54.07     0  03:32           0        4.13       0.000
  
  
  *********************
  Node Flooding Summary
  *********************
  
  No nodes were flooded.
  
  
  ***********************
  Outfall Loading Summary
  ***********************
  
  -----------------------------------------------------------
                         Flow       Avg       Max       Total
                         Freq      Flow      Flow      Volume
  Outfall Node           Pcnt       CFS       CFS    10^6 gal
  -----------------------------------------------------------
  10208                 91.04     21.08     54.07       4.135
  -----------------------------------------------------------
  System                91.04     21.08     54.07       4.135
  
  
  ********************
  Link Flow Summary
  ********************
  
  -----------------------------------------------------------------------------
                                 Maximum  Time of Max   Maximum    Max/    Max/
                                  |Flow|   Occurrence   |Veloc|    Full    Full
  Link                 Type          CFS  days hr:min    ft/sec    Flow   Depth
  -----------------------------------------------------------------------------
  8100                 CONDUIT     53.82     0  03:04     12.75    0.69    0.58
  8130                 CONDUIT     53.32     0  03:11      6.04    0.76    0.64
  1030                 CONDUIT     54.07     0  03:32      5.25    0.02    0.22
  1570                 CONDUIT     54.07     0  03:23      6.03    0.44    0.45
  1630                 CONDUIT     54.03     0  03:24      3.73    0.02    0.24
  
  
  *************************
  Conduit Surcharge Summary
  *************************
  
  No conduits were surcharged.
  

  Analysis begun on:  Fri Mar  6 15:34:11 2026
  Analysis ended on:  Fri Mar  6 15:34:11 2026
  Total elapsed time: < 1 sec