
  EPA STORM WATER MANAGEMENT MODEL - VERSION 5.2 (Build 5.2.4)
  ------------------------------------------------------------

  
  ERROR 305: cannot open report file.at line 137 of [LID_USAGE] section:
  CA-1	RAINGARDEN	5	2000.000000	4.000000	0.000000	22.000000	1	"D:\SWMMandSoftware\SWMM5.013_June2018\EPASWMM5.1.013\Swmm5.1.013UpdateTests\SWMM5_NCIMM\CA-1_RAINGARDEN.txt"

  
  ERROR 305: cannot open report file.at line 138 of [LID_USAGE] section:
  CA-1	RB	10	1000.000000	4.000000	0.000000	22.000000	1	"D:\SWMMandSoftware\SWMM5.013_June2018\EPASWMM5.1.013\Swmm5.1.013UpdateTests\SWMM5_NCIMM\CA-1_RB.txt"

  
  ERROR 305: cannot open report file.at line 139 of [LID_USAGE] section:
  CA-8	RAINGARDEN	5	2000.000000	4.000000	0.000000	22.000000	1	"D:\SWMMandSoftware\SWMM5.013_June2018\EPASWMM5.1.013\Swmm5.1.013UpdateTests\SWMM5_NCIMM\CA-8_RAINGARDEN.txt"

  
  ERROR 305: cannot open report file.at line 140 of [LID_USAGE] section:
  CA-8	RB	10	1000.000000	4.000000	0.000000	22.000000	1	"D:\SWMMandSoftware\SWMM5.013_June2018\EPASWMM5.1.013\Swmm5.1.013UpdateTests\SWMM5_NCIMM\CA-8_RB.txt"

  
  ERROR 305: cannot open report file.at line 141 of [LID_USAGE] section:
  CA-7	RAINGARDEN	5	2000.000000	4.000000	0.000000	22.000000	1	"D:\SWMMandSoftware\SWMM5.013_June2018\EPASWMM5.1.013\Swmm5.1.013UpdateTests\SWMM5_NCIMM\CA-7_RAINGARDEN.txt"

  
  ERROR 305: cannot open report file.at line 142 of [LID_USAGE] section:
  CA-7	RB	10	1000.000000	4.000000	0.000000	22.000000	1	"D:\SWMMandSoftware\SWMM5.013_June2018\EPASWMM5.1.013\Swmm5.1.013UpdateTests\SWMM5_NCIMM\CA-7_RB.txt"

  
  ERROR 305: cannot open report file.at line 143 of [LID_USAGE] section:
  CA-1	SWALE	10	1000.000000	4.000000	0.000000	22.000000	1	"D:\SWMMandSoftware\SWMM5.013_June2018\EPASWMM5.1.013\Swmm5.1.013UpdateTests\SWMM5_NCIMM\CA-1_SWALE.txt"

  
  ERROR 305: cannot open report file.at line 144 of [LID_USAGE] section:
  CA-7	SWALE	10	1000.000000	4.000000	0.000000	22.000000	1	"D:\SWMMandSoftware\SWMM5.013_June2018\EPASWMM5.1.013\Swmm5.1.013UpdateTests\SWMM5_NCIMM\CA-7_SWALE.txt"

  
  ERROR 305: cannot open report file.at line 145 of [LID_USAGE] section:
  CA-8	SWALE	10	1000.000000	4.000000	0.000000	22.000000	1	"D:\SWMMandSoftware\SWMM5.013_June2018\EPASWMM5.1.013\Swmm5.1.013UpdateTests\SWMM5_NCIMM\CA-8_SWALE.txt"

  
  ERROR 305: cannot open report file.at line 146 of [LID_USAGE] section:
  CA-1	TRENCH	10	1000.000000	4.000000	0.000000	22.000000	1	"D:\SWMMandSoftware\SWMM5.013_June2018\EPASWMM5.1.013\Swmm5.1.013UpdateTests\SWMM5_NCIMM\CA-1_TRENCH.txt"

  
  ERROR 305: cannot open report file.at line 147 of [LID_USAGE] section:
  CA-7	TRENCH	10	1000.000000	4.000000	0.000000	22.000000	1	"D:\SWMMandSoftware\SWMM5.013_June2018\EPASWMM5.1.013\Swmm5.1.013UpdateTests\SWMM5_NCIMM\CA-7_TRENCH.txt"

  
  ERROR 305: cannot open report file.at line 148 of [LID_USAGE] section:
  CA-8	TRENCH	10	1000.000000	4.000000	0.000000	22.000000	1	"D:\SWMMandSoftware\SWMM5.013_June2018\EPASWMM5.1.013\Swmm5.1.013UpdateTests\SWMM5_NCIMM\CA-8_TRENCH.txt"

  
  ERROR 305: cannot open report file.at line 149 of [LID_USAGE] section:
  CA-11	RAINGARDEN	5	20000.000000	4.000000	0.000000	22.000000	1	"D:\SWMMandSoftware\SWMM5.013_June2018\EPASWMM5.1.013\Swmm5.1.013UpdateTests\SWMM5_NCIMM\CA-11_RAINGARDEN.txt"

  
  ERROR 305: cannot open report file.at line 150 of [LID_USAGE] section:
  CA-11	RB	10	1000.000000	4.000000	0.000000	22.000000	1	"D:\SWMMandSoftware\SWMM5.013_June2018\EPASWMM5.1.013\Swmm5.1.013UpdateTests\SWMM5_NCIMM\CA-11_RB.txt"

  
  ERROR 305: cannot open report file.at line 151 of [LID_USAGE] section:
  CA-11	SWALE	10	33000.000000	4.000000	0.000000	22.000000	1	"D:\SWMMandSoftware\SWMM5.013_June2018\EPASWMM5.1.013\Swmm5.1.013UpdateTests\SWMM5_NCIMM\CA-11_SWALE.txt"

  
  ERROR 305: cannot open report file.at line 152 of [LID_USAGE] section:
  CA-11	TRENCH	10	1000.000000	4.000000	0.000000	22.000000	1	"D:\SWMMandSoftware\SWMM5.013_June2018\EPASWMM5.1.013\Swmm5.1.013UpdateTests\SWMM5_NCIMM\CA-11_TRENCH.txt"


  Analysis begun on:  Fri Mar  6 15:34:11 2026
  Analysis ended on:  Fri Mar  6 15:34:11 2026
  Total elapsed time: < 1 sec