
  EPA STORM WATER MANAGEMENT MODEL - VERSION 5.2 (Build 5.2.4)
  ------------------------------------------------------------

  
  ERROR 209: undefined object -1 at line 21 of [SUBCATCHMENT] section:
  CA-1 -1 P001 4.999000 39.000000 600.000000 270.000000 0.000000

  
  ERROR 209: undefined object -1 at line 23 of [SUBCATCHMENT] section:
  CA-11 -1 P011 3.580000 47.000000 600.000000 270.000000 0.000000

  
  ERROR 209: undefined object -1 at line 25 of [SUBCATCHMENT] section:
  CA-7 -1 P005 1.599000 48.600000 200.000000 270.000000 0.000000

  
  ERROR 209: undefined object -1 at line 27 of [SUBCATCHMENT] section:
  CA-8 -1 P009 4.565000 46.700000 500.000000 270.000000 0.000000


  Analysis begun on:  Fri Mar  6 15:34:11 2026
  Analysis ended on:  Fri Mar  6 15:34:11 2026
  Total elapsed time: < 1 sec