
  EPA STORM WATER MANAGEMENT MODEL - VERSION 5.2 (Build 5.2.4)
  ------------------------------------------------------------

  Scenario Run :  WRONG_INTERVAL 
   SW 1 0 9A1 'BROWARD COUNTY Multi FAMILY SITE - Runoff example # 47'A2 'RUNO 
  WARNING 03: negative offset ignored for Link CDT-11
  
  ****************
  Analysis Options
  ****************
  Flow Units ............... LPS
  Process Models:
    Rainfall/Runoff ........ YES
    RDII ................... NO
    Snowmelt ............... NO
    Groundwater ............ YES
    Flow Routing ........... YES
    Ponding Allowed ........ NO
    Water Quality .......... YES
  Infiltration Method ...... HORTON
  Flow Routing Method ...... DYNWAVE
  Surcharge Method ......... EXTRAN
  Starting Date ............ 07/15/1977 06:30:00
  Ending Date .............. 07/15/1977 19:15:00
  Antecedent Dry Days ...... 7.0
  Report Time Step ......... 00:01:00
  Wet Time Step ............ 00:01:00
  Dry Time Step ............ 00:01:00
  Routing Time Step ........ 5.00 sec
  Variable Time Step ....... YES
  Maximum Trials ........... 4
  Number of Threads ........ 1
  Head Tolerance ........... 0.005000 m
  
  
  ERROR 323: cannot open runoff interface file C:\ProgramData\Innovyze\Temp\HM1Vdb\HMVDB55\RUNOFF47.INT.

  Analysis begun on:  Fri Mar  6 15:34:11 2026
  Analysis ended on:  Fri Mar  6 15:34:11 2026
  Total elapsed time: < 1 sec