
  EPA STORM WATER MANAGEMENT MODEL - VERSION 5.2 (Build 5.2.4)
  ------------------------------------------------------------

  
  ****************
  Analysis Options
  ****************
  Flow Units ............... MGD
  Process Models:
    Rainfall/Runoff ........ YES
    RDII ................... NO
    Snowmelt ............... NO
    Groundwater ............ NO
    Flow Routing ........... YES
    Ponding Allowed ........ YES
    Water Quality .......... NO
  Infiltration Method ...... HORTON
  Flow Routing Method ...... DYNWAVE
  Surcharge Method ......... EXTRAN
  Starting Date ............ 07/30/2012 23:00:00
  Ending Date .............. 08/01/2012 23:45:00
  Antecedent Dry Days ...... 5.0
  Report Time Step ......... 00:15:00
  Wet Time Step ............ 00:05:00
  Dry Time Step ............ 01:00:00
  Routing Time Step ........ 10.00 sec
  Variable Time Step ....... YES
  Maximum Trials ........... 4
  Number of Threads ........ 1
  Head Tolerance ........... 0.005000 ft
  
  
  **************************        Volume         Depth
  Runoff Quantity Continuity     acre-feet        inches
  **************************     ---------       -------
  Total Precipitation ......        28.726         6.700
  Evaporation Loss .........         0.000         0.000
  Infiltration Loss ........         0.000         0.000
  Surface Runoff ...........        28.521         6.652
  Final Storage ............         0.214         0.050
  Continuity Error (%) .....        -0.034
  
  
  **************************        Volume        Volume
  Flow Routing Continuity        acre-feet      10^6 gal
  **************************     ---------     ---------
  Dry Weather Inflow .......         0.000         0.000
  Wet Weather Inflow .......        28.520         9.294
  Groundwater Inflow .......         0.000         0.000
  RDII Inflow ..............         0.000         0.000
  External Inflow ..........         0.000         0.000
  External Outflow .........        28.514         9.292
  Flooding Loss ............         0.000         0.000
  Evaporation Loss .........         0.000         0.000
  Exfiltration Loss ........         0.000         0.000
  Initial Stored Volume ....         0.000         0.000
  Final Stored Volume ......         0.009         0.003
  Continuity Error (%) .....        -0.009
  
  
  ***************************
  Time-Step Critical Elements
  ***************************
  Link 0141072 (73.33%)
  Link 0141034 (2.16%)
  
  
  ********************************
  Highest Flow Instability Indexes
  ********************************
  Link 0116013 (14)
  Link 0116021 (13)
  Link 0116014 (12)
  Link 0116020 (8)
  Link 0116003 (2)
  
  
  *********************************
  Most Frequent Nonconverging Nodes
  *********************************
  Node 0116005 (1.85%)
  Node 0116106G (1.85%)
  Node 0116159 (1.85%)
  Node 0116164G (1.85%)
  Node 0141022 (1.85%)
  
  
  *************************
  Routing Time Step Summary
  *************************
  Minimum Time Step           :     0.50 sec
  Average Time Step           :     4.81 sec
  Maximum Time Step           :    10.00 sec
  % of Time in Steady State   :     0.00
  Average Iterations per Step :     2.04
  % of Steps Not Converging   :     1.85
  Time Step Frequencies       :
     10.000 -  5.493 sec      :    25.11 %
      5.493 -  3.017 sec      :    48.38 %
      3.017 -  1.657 sec      :    22.32 %
      1.657 -  0.910 sec      :     3.40 %
      0.910 -  0.500 sec      :     0.78 %
  
  
  ***************************
  Subcatchment Runoff Summary
  ***************************
  
  ------------------------------------------------------------------------------------------------------------------------------
                            Total      Total      Total      Total     Imperv       Perv      Total       Total     Peak  Runoff
                           Precip      Runon       Evap      Infil     Runoff     Runoff     Runoff      Runoff   Runoff   Coeff
  Subcatchment                 in         in         in         in         in         in         in    10^6 gal      MGD
  ------------------------------------------------------------------------------------------------------------------------------
  S280                       6.70       0.00       0.00       0.00       0.00       6.65       6.65        0.19     3.29   0.993
  S283                       6.70       0.00       0.00       0.00       0.00       6.65       6.65        1.05    18.22   0.993
  S283A                      6.70       0.00       0.00       0.00       0.00       6.65       6.65        0.07     1.25   0.993
  S58                        6.70       0.00       0.00       0.00       0.00       6.65       6.65        0.61    10.63   0.993
  S62                        6.70       0.00       0.00       0.00       0.00       6.65       6.65        0.18     3.07   0.993
  S62A                       6.70       0.00       0.00       0.00       0.00       6.65       6.65        0.21     3.61   0.993
  S62B                       6.70       0.00       0.00       0.00       0.00       6.65       6.65        0.17     2.95   0.993
  S62C                       6.70       0.00       0.00       0.00       0.00       6.65       6.65        0.06     1.10   0.993
  S65                        6.70       0.00       0.00       0.00       0.00       6.65       6.65        1.01    17.50   0.993
  S65A                       6.70       0.00       0.00       0.00       0.00       6.65       6.65        0.69    12.04   0.993
  S65B                       6.70       0.00       0.00       0.00       0.00       6.65       6.65        0.81    14.08   0.993
  S65C                       6.70       0.00       0.00       0.00       0.00       6.65       6.65        0.55     9.56   0.993
  S66                        6.70       0.00       0.00       0.00       0.00       6.65       6.65        0.11     1.85   0.993
  S68                        6.70       0.00       0.00       0.00       0.00       6.65       6.65        0.48     8.34   0.993
  S68A                       6.70       0.00       0.00       0.00       0.00       6.65       6.65        0.22     3.83   0.993
  S68B                       6.70       0.00       0.00       0.00       0.00       6.65       6.65        0.59    10.32   0.993
  S68C                       6.70       0.00       0.00       0.00       0.00       6.65       6.65        0.09     1.50   0.993
  S71                        6.70       0.00       0.00       0.00       0.00       6.66       6.66        1.24    21.48   0.993
  S71A                       6.70       0.00       0.00       0.00       0.00       6.65       6.65        0.96    16.71   0.993
  
  
  ******************
  Node Depth Summary
  ******************
  
  ---------------------------------------------------------------------------------
                                 Average  Maximum  Maximum  Time of Max    Reported
                                   Depth    Depth      HGL   Occurrence   Max Depth
  Node                 Type         Feet     Feet     Feet  days hr:min        Feet
  ---------------------------------------------------------------------------------
  0116001              JUNCTION     0.19     1.13  1143.23     0  11:30        1.13
  0116002              JUNCTION     0.33     9.47  1127.23     0  11:05        3.65
  0116003              JUNCTION     0.46     6.58  1120.84     0  11:05        5.30
  0116012G             JUNCTION     0.00     0.00  1183.16     0  00:00        0.00
  0116013              JUNCTION     0.30     1.64  1153.23     0  11:22        1.64
  0116014              JUNCTION     0.39     2.68  1141.81     0  11:22        2.68
  0116015              JUNCTION     0.36     2.02  1124.34     0  11:23        2.02
  0116020              JUNCTION     2.41     5.57  1155.18     0  11:05        5.38
  0116021              JUNCTION     1.20     4.90  1155.74     0  11:05        4.66
  0116022              JUNCTION     0.23     7.91  1152.64     0  11:05        3.99
  0116023              JUNCTION     0.21     5.68  1131.35     0  11:09        1.98
  0116024              JUNCTION     0.10     0.59  1166.88     0  11:07        0.59
  0116025              JUNCTION     0.22    10.92  1151.11     0  11:08        4.46
  0116037              JUNCTION     0.00     0.00  1190.41     0  00:00        0.00
  0116038              JUNCTION     0.00     0.00  1195.43     0  00:00        0.00
  0116039              JUNCTION     0.07     0.36  1155.48     0  11:25        0.36
  0116040              JUNCTION     0.09     0.53  1157.60     0  11:25        0.53
  0116041              JUNCTION     0.00     0.00  1149.12     0  00:00        0.00
  0116042              JUNCTION     0.00     0.00  1102.60     0  00:00        0.00
  0116054              JUNCTION     0.00     0.00  1194.40     0  00:00        0.00
  0116055              JUNCTION     0.00     0.00  1185.10     0  00:00        0.00
  0116073C             JUNCTION     0.00     0.00  1196.00     0  00:00        0.00
  0116084              JUNCTION     0.00     0.00  1132.15     0  00:00        0.00
  0116088              JUNCTION     0.00     0.00  1156.03     0  00:00        0.00
  0116105              JUNCTION     0.30     3.16  1104.77     0  11:20        3.16
  0116111B             JUNCTION     0.19     1.07  1108.67     0  11:20        1.07
  0116146B             JUNCTION     0.18     1.12  1137.62     0  11:20        1.12
  0116148              JUNCTION     0.35     6.13  1149.61     0  11:05        5.54
  0117078G             JUNCTION     0.89    13.70  1119.94     0  11:09       13.66
  0141008              JUNCTION     0.19     1.32  1189.36     0  11:05        1.31
  0141009              JUNCTION     0.00     0.00  1204.65     0  00:00        0.00
  0141019              JUNCTION     0.37    10.48  1178.16     0  11:06        4.08
  0141020              JUNCTION     0.00     0.00  1206.30     0  00:00        0.00
  0141031              JUNCTION     0.44     3.05  1163.48     0  11:22        3.05
  0141032              JUNCTION     0.21     1.22  1183.68     0  11:09        1.22
  0141033              JUNCTION     0.13     0.75  1207.21     0  11:09        0.75
  0141034              JUNCTION     0.14     1.02  1214.02     0  11:09        1.02
  0141066              JUNCTION     0.00     0.00  1202.00     0  00:00        0.00
  0141067              JUNCTION     0.18     1.01  1178.05     0  11:06        1.00
  0141068              JUNCTION     0.00     0.00  1226.96     0  00:00        0.00
  0141072              JUNCTION     0.54     5.11  1165.90     0  11:06        4.67
  0142030              JUNCTION     0.00     0.00  1218.83     0  00:00        0.00
  0142031              JUNCTION     0.00     0.00  1195.78     0  00:00        0.00
  0142042              JUNCTION     0.00     0.00  1206.58     0  00:00        0.00
  0142043              JUNCTION     0.00     0.00  1179.48     0  00:00        0.00
  0142044              JUNCTION     0.14     0.78  1165.04     0  11:20        0.78
  0142045              JUNCTION     0.00     0.00  1192.31     0  00:00        0.00
  0142046              JUNCTION     0.50     5.03  1160.95     0  11:22        5.03
  0142047              JUNCTION     0.00     0.03  1214.03     0  11:08        0.02
  0142053              JUNCTION     0.00     0.00  1207.95     0  00:00        0.00
  0142054              JUNCTION     0.00     0.00  1190.43     0  00:00        0.00
  0116005              OUTFALL      0.00     0.00  1102.88     0  00:00        0.00
  0116106G             OUTFALL      0.00     0.00  1093.45     0  00:00        0.00
  0116159              OUTFALL      0.00     0.00  1100.03     0  00:00        0.00
  0116164G             OUTFALL      0.00     0.00  1093.29     0  00:00        0.00
  0141022              OUTFALL      0.02     0.50  1212.50     0  11:08        0.50
  
  
  *******************
  Node Inflow Summary
  *******************
  
  -------------------------------------------------------------------------------------------------
                                  Maximum  Maximum                  Lateral       Total        Flow
                                  Lateral    Total  Time of Max      Inflow      Inflow     Balance
                                   Inflow   Inflow   Occurrence      Volume      Volume       Error
  Node                 Type           MGD      MGD  days hr:min    10^6 gal    10^6 gal     Percent
  -------------------------------------------------------------------------------------------------
  0116001              JUNCTION    10.630   22.669     0  11:30       0.612        1.31       0.008
  0116002              JUNCTION     3.073   25.742     0  11:30       0.177        1.48       0.002
  0116003              JUNCTION     3.606   29.529     0  11:05       0.208        1.69      -0.010
  0116012G             JUNCTION     0.000    0.000     0  00:00           0           0       0.000 gal
  0116013              JUNCTION     0.000   90.357     0  11:22           0        5.24      -0.005
  0116014              JUNCTION     8.341  102.523     0  11:22        0.48        5.94       0.003
  0116015              JUNCTION     1.097  110.014     0  11:23      0.0632        6.37       0.001
  0116020              JUNCTION     0.000   10.330     0  11:06           0       0.595       0.469
  0116021              JUNCTION    10.316   10.316     0  11:05       0.594       0.594       0.067
  0116022              JUNCTION     0.000    3.825     0  11:07           0        0.22      -0.004
  0116023              JUNCTION     0.000    6.436     0  11:09           0       0.368       0.038
  0116024              JUNCTION     3.825    3.825     0  11:05        0.22        0.22       0.000
  0116025              JUNCTION     5.142    6.396     0  11:15       0.296       0.368       0.013
  0116037              JUNCTION     0.000    0.000     0  00:00           0           0       0.000 gal
  0116038              JUNCTION     0.000    0.000     0  00:00           0           0       0.000 gal
  0116039              JUNCTION     0.000    1.254     0  11:25           0      0.0722      -0.010
  0116040              JUNCTION     1.254    1.254     0  11:05      0.0722      0.0722       0.000
  0116041              JUNCTION     0.000    0.000     0  00:00           0           0       0.000 gal
  0116042              JUNCTION     0.000    0.000     0  00:00           0           0       0.000 gal
  0116054              JUNCTION     0.000    0.000     0  00:00           0           0       0.000 gal
  0116055              JUNCTION     0.000    0.000     0  00:00           0           0       0.000 gal
  0116073C             JUNCTION     0.000    0.000     0  00:00           0           0       0.000 gal
  0116084              JUNCTION     0.000    0.000     0  00:00           0           0       0.000 gal
  0116088              JUNCTION     0.000    0.000     0  00:00           0           0       0.000 gal
  0116105              JUNCTION     0.000   18.217     0  11:20           0        1.05       0.000
  0116111B             JUNCTION     0.000   18.217     0  11:20           0        1.05       0.000
  0116146B             JUNCTION     0.000   18.233     0  11:05           0        1.05       0.001
  0116148              JUNCTION    18.217   18.217     0  11:20        1.05        1.05      -0.002
  0117078G             JUNCTION     2.947  112.961     0  11:23        0.17        6.54       0.000
  0141008              JUNCTION    16.712   16.712     0  11:30       0.963       0.963      -0.002
  0141009              JUNCTION     0.000    0.000     0  00:00           0           0       0.000 gal
  0141019              JUNCTION    21.479   38.362     0  11:06        1.24         2.2      -0.006
  0141020              JUNCTION     0.000    0.000     0  00:00           0           0       0.000 gal
  0141031              JUNCTION    14.079   80.253     0  11:06       0.811        4.64       0.001
  0141032              JUNCTION    17.496   26.272     0  11:09        1.01        1.54       0.002
  0141033              JUNCTION     0.000    8.776     0  11:09           0       0.536       0.000
  0141034              JUNCTION     9.564    9.564     0  11:05       0.551       0.551      -0.001
  0141066              JUNCTION     0.000    0.000     0  00:00           0           0       0.000 gal
  0141067              JUNCTION     0.000   16.764     0  11:05           0       0.963       0.002
  0141068              JUNCTION     0.000    0.000     0  00:00           0           0       0.000 gal
  0141072              JUNCTION     1.505   39.865     0  11:06      0.0867        2.29      -0.001
  0142030              JUNCTION     0.000    0.000     0  00:00           0           0       0.000 gal
  0142031              JUNCTION     0.000    0.000     0  00:00           0           0       0.000 gal
  0142042              JUNCTION     0.000    0.000     0  00:00           0           0       0.000 gal
  0142043              JUNCTION     0.000    0.000     0  00:00           0           0       0.000 gal
  0142044              JUNCTION    12.041   12.041     0  11:05       0.693       0.693       0.006
  0142045              JUNCTION     0.000    0.000     0  00:00           0           0       0.000 gal
  0142046              JUNCTION     0.000   80.042     0  11:22           0        4.64      -0.025
  0142047              JUNCTION     0.000    0.011     0  11:06           0    1.38e-05       6.146
  0142053              JUNCTION     0.000    0.000     0  00:00           0           0       0.000 gal
  0142054              JUNCTION     0.000    0.000     0  00:00           0           0       0.000 gal
  0116005              OUTFALL      0.000   30.718     0  11:05           0        1.69       0.000
  0116106G             OUTFALL      0.000   18.217     0  11:20           0        1.05       0.000
  0116159              OUTFALL      0.000  112.961     0  11:23           0        6.54       0.000
  0116164G             OUTFALL      0.000    0.000     0  00:00           0           0       0.000 gal
  0141022              OUTFALL      0.000    0.786     0  11:08           0      0.0151       0.000
  
  
  **********************
  Node Surcharge Summary
  **********************
  
  Surcharging occurs when water rises above the top of the highest conduit.
  ---------------------------------------------------------------------
                                               Max. Height   Min. Depth
                                   Hours       Above Crown    Below Rim
  Node                 Type      Surcharged           Feet         Feet
  ---------------------------------------------------------------------
  0116002              JUNCTION        0.42          6.966        3.234
  0116003              JUNCTION        0.49          3.956        6.904
  0116020              JUNCTION       47.40          3.557        0.283
  0116021              JUNCTION        0.51          1.839        0.761
  0116022              JUNCTION        0.45          6.910        0.000
  0116023              JUNCTION        0.42          4.184        6.136
  0116025              JUNCTION        0.38          9.900        0.000
  0116105              JUNCTION        0.44          0.655        4.845
  0116148              JUNCTION        0.47          4.630        5.870
  0117078G             JUNCTION        0.51          9.697        2.063
  0141019              JUNCTION        0.41          7.980        0.000
  0141072              JUNCTION        0.51          2.107        1.703
  0142046              JUNCTION        0.43          0.928        8.032
  
  
  *********************
  Node Flooding Summary
  *********************
  
  Flooding refers to all water that overflows a node, whether it ponds or not.
  --------------------------------------------------------------------------
                                                             Total   Maximum
                                 Maximum   Time of Max       Flood    Ponded
                        Hours       Rate    Occurrence      Volume     Depth
  Node                 Flooded       MGD   days hr:min    10^6 gal      Feet
  --------------------------------------------------------------------------
  0116022                 0.01     0.420      0  11:05       0.000     0.000
  0116025                 0.01     0.354      0  11:08       0.000     0.000
  0141019                 0.01     2.379      0  11:06       0.000     0.000
  
  
  ***********************
  Outfall Loading Summary
  ***********************
  
  -----------------------------------------------------------
                         Flow       Avg       Max       Total
                         Freq      Flow      Flow      Volume
  Outfall Node           Pcnt       MGD       MGD    10^6 gal
  -----------------------------------------------------------
  0116005               76.47     2.692    30.718       1.690
  0116106G              76.78     1.666    18.217       1.049
  0116159               79.16    10.030   112.961       6.536
  0116164G               0.00     0.000     0.000       0.000
  0141022                4.13     0.662     0.786       0.015
  -----------------------------------------------------------
  System                47.31    15.051   161.311       9.291
  
  
  ********************
  Link Flow Summary
  ********************
  
  -----------------------------------------------------------------------------
                                 Maximum  Time of Max   Maximum    Max/    Max/
                                  |Flow|   Occurrence   |Veloc|    Full    Full
  Link                 Type          MGD  days hr:min    ft/sec    Flow   Depth
  -----------------------------------------------------------------------------
  0116001              CONDUIT    22.669     0  11:30     16.77    0.61    0.78
  0116002              CONDUIT    25.924     0  11:05      8.17    0.68    1.00
  0116003              CONDUIT    30.718     0  11:05     10.40    0.91    0.88
  0116012G             CONDUIT     0.000     0  00:00      0.00    0.00    0.15
  0116013              CONDUIT    90.357     0  11:22     21.11    0.35    0.54
  0116014              CONDUIT   102.523     0  11:22     20.40    0.53    0.59
  0116015              CONDUIT   110.014     0  11:23     16.77    0.51    0.75
  0116015A             CONDUIT   112.961     0  11:23     17.13    0.52    0.76
  0116020              CONDUIT    10.348     0  11:05      5.61    0.59    0.88
  0116021              CONDUIT    10.330     0  11:06      5.09    0.56    1.00
  0116022              CONDUIT     3.825     0  11:08      7.54    1.01    1.00
  0116023              CONDUIT     6.719     0  11:08      6.40    0.89    0.86
  0116024              CONDUIT     3.825     0  11:07     11.90    0.86    0.86
  0116025              CONDUIT     6.436     0  11:09     12.73    1.06    1.00
  0116037              CONDUIT     0.000     0  00:00      0.00    0.00    0.39
  0116038              CONDUIT     0.000     0  00:00      0.00    0.00    0.00
  0116039              CONDUIT     1.254     0  11:25      4.17    0.28    0.68
  0116040              CONDUIT     1.254     0  11:25      4.61    0.54    0.53
  0116040Z             CONDUIT     0.000     0  00:00      0.00    0.00    0.00
  0116041              CONDUIT     0.000     0  00:00      0.00    0.00    0.00
  0116042              CONDUIT     0.000     0  00:00      0.00    0.00    0.00
  0116054              CONDUIT     0.000     0  00:00      0.00    0.00    0.00
  0116055              CONDUIT     0.000     0  00:00      0.00    0.00    0.00
  0116073C             CONDUIT     0.000     0  00:00      0.00    0.00    0.00
  0116084              CONDUIT     0.000     0  00:00      0.00    0.00    0.00
  0116088              CONDUIT     0.000     0  00:00      0.00    0.00    0.50
  0116105              CONDUIT    18.217     0  11:20      7.71    0.33    0.70
  0116111B             CONDUIT    18.217     0  11:20     10.88    0.56    0.77
  0116146B             CONDUIT    18.217     0  11:20     20.43    0.85    0.73
  0116148              CONDUIT    18.233     0  11:05     17.40    1.04    0.87
  0141008              CONDUIT    16.764     0  11:05     13.76    0.49    0.58
  0141009              CONDUIT     0.000     0  00:00      0.00    0.00    0.50
  0141019              CONDUIT    38.361     0  11:06     12.09    0.91    1.00
  0141020              CONDUIT     0.000     0  00:00      0.00    0.00    0.50
  0141031              CONDUIT    80.042     0  11:22     11.68    0.65    0.88
  0141032              CONDUIT    26.272     0  11:09     15.00    0.69    0.80
  0141033              CONDUIT     8.776     0  11:09     14.72    0.67    0.71
  0141034              CONDUIT     8.776     0  11:09     15.34    0.58    0.68
  0141034Z             CONDUIT     0.786     0  11:08      3.03    0.49    0.51
  0141066              CONDUIT     0.000     0  00:00      0.00    0.00    0.50
  0141067              CONDUIT    16.885     0  11:06     10.98    0.51    0.75
  0141068              CONDUIT     0.000     0  00:00      0.00    0.00    0.50
  0141072              CONDUIT    39.936     0  11:06      9.21    0.80    1.00
  0142030              CONDUIT     0.000     0  00:00      0.00    0.00    0.00
  0142031              CONDUIT     0.000     0  00:00      0.00    0.00    0.00
  0142042              CONDUIT     0.000     0  00:00      0.00    0.00    0.00
  0142043              CONDUIT     0.000     0  00:00      0.00    0.00    0.16
  0142044              CONDUIT    12.040     0  11:20     13.94    0.32    0.44
  0142045              CONDUIT     0.000     0  00:00      0.00    0.00    0.00
  0142046              CONDUIT    80.042     0  11:22     12.28    0.49    0.75
  0142047              CONDUIT     0.011     0  11:06      0.09    0.02    0.52
  0142053              CONDUIT     0.000     0  00:00      0.00    0.00    0.00
  0142054              CONDUIT     0.000     0  00:00      0.00    0.00    0.50
  
  
  ***************************
  Flow Classification Summary
  ***************************
  
  -------------------------------------------------------------------------------------
                      Adjusted    ---------- Fraction of Time in Flow Class ---------- 
                       /Actual         Up    Down  Sub   Sup   Up    Down  Norm  Inlet 
  Conduit               Length    Dry  Dry   Dry   Crit  Crit  Crit  Crit  Ltd   Ctrl  
  -------------------------------------------------------------------------------------
  0116001                 1.00   0.00  0.00  0.00  0.00  0.01  0.00  0.99  0.01  0.00
  0116002                 1.00   0.00  0.00  0.00  0.01  0.06  0.00  0.93  0.05  0.00
  0116003                 1.00   0.00  0.00  0.00  0.00  0.00  0.00  1.00  0.00  0.00
  0116012G                1.00   0.99  0.01  0.00  0.00  0.00  0.00  0.00  0.00  0.00
  0116013                 1.00   0.26  0.00  0.00  0.00  0.49  0.00  0.25  0.02  0.00
  0116014                 1.00   0.10  0.00  0.00  0.00  0.00  0.00  0.90  0.00  0.00
  0116015                 1.00   0.01  0.01  0.00  0.03  0.96  0.00  0.00  0.81  0.00
  0116015A                1.00   0.01  0.00  0.00  0.00  0.00  0.00  0.99  0.00  0.00
  0116020                 1.00   0.00  0.00  0.00  0.21  0.00  0.79  0.00  0.01  0.00
  0116021                 1.00   0.00  0.00  0.00  1.00  0.00  0.00  0.00  0.00  0.00
  0116022                 1.00   0.00  0.00  0.00  0.02  0.06  0.00  0.92  0.05  0.00
  0116023                 1.00   0.00  0.00  0.00  0.00  0.00  0.00  1.00  0.00  0.00
  0116024                 1.00   0.00  0.00  0.00  0.51  0.49  0.00  0.00  1.00  0.00
  0116025                 1.00   0.00  0.00  0.00  0.01  0.48  0.00  0.51  0.48  0.00
  0116037                 1.00   0.59  0.41  0.00  0.00  0.00  0.00  0.00  0.00  0.00
  0116038                 1.00   1.00  0.00  0.00  0.00  0.00  0.00  0.00  0.00  0.00
  0116039                 1.00   0.00  0.00  0.00  0.01  0.48  0.00  0.51  0.49  0.00
  0116040                 1.00   0.00  0.00  0.00  0.00  0.00  0.00  1.00  0.00  0.00
  0116040Z                1.00   1.00  0.00  0.00  0.00  0.00  0.00  0.00  0.00  0.00
  0116041                 1.00   1.00  0.00  0.00  0.00  0.00  0.00  0.00  0.00  0.00
  0116042                 1.00   1.00  0.00  0.00  0.00  0.00  0.00  0.00  0.00  0.00
  0116054                 1.00   1.00  0.00  0.00  0.00  0.00  0.00  0.00  0.00  0.00
  0116055                 1.00   1.00  0.00  0.00  0.00  0.00  0.00  0.00  0.00  0.00
  0116073C                1.00   1.00  0.00  0.00  0.00  0.00  0.00  0.00  0.00  0.00
  0116084                 1.00   1.00  0.00  0.00  0.00  0.00  0.00  0.00  0.00  0.00
  0116088                 1.00   0.99  0.01  0.00  0.00  0.00  0.00  0.00  0.00  0.00
  0116105                 1.00   0.01  0.00  0.00  0.00  0.00  0.00  0.99  0.00  0.00
  0116111B                1.00   0.00  0.00  0.00  0.45  0.55  0.00  0.00  0.97  0.00
  0116146B                1.00   0.00  0.00  0.00  0.00  0.00  0.00  1.00  0.00  0.00
  0116148                 1.00   0.00  0.00  0.00  0.45  0.54  0.00  0.00  0.49  0.00
  0141008                 1.00   0.00  0.05  0.00  0.40  0.55  0.00  0.00  0.07  0.00
  0141009                 1.00   0.05  0.95  0.00  0.00  0.00  0.00  0.00  0.00  0.00
  0141019                 1.00   0.00  0.00  0.00  0.47  0.53  0.00  0.00  0.82  0.00
  0141020                 1.00   0.51  0.49  0.00  0.00  0.00  0.00  0.00  0.00  0.00
  0141031                 1.00   0.00  0.00  0.00  0.01  0.01  0.00  0.98  0.00  0.00
  0141032                 1.00   0.00  0.00  0.00  0.00  0.49  0.00  0.51  0.49  0.00
  0141033                 1.00   0.00  0.00  0.00  0.00  0.01  0.00  0.99  0.01  0.00
  0141034                 1.00   0.00  0.00  0.00  0.00  0.00  0.00  1.00  0.00  0.00
  0141034Z                1.00   0.99  0.00  0.00  0.01  0.00  0.00  0.00  0.76  0.00
  0141066                 1.00   0.75  0.25  0.00  0.00  0.00  0.00  0.00  0.00  0.00
  0141067                 1.00   0.00  0.00  0.00  0.00  0.11  0.00  0.89  0.06  0.00
  0141068                 1.00   0.00  1.00  0.00  0.00  0.00  0.00  0.00  0.00  0.00
  0141072                 1.00   0.00  0.01  0.00  0.61  0.38  0.00  0.00  0.40  0.00
  0142030                 1.00   1.00  0.00  0.00  0.00  0.00  0.00  0.00  0.00  0.00
  0142031                 1.00   1.00  0.00  0.00  0.00  0.00  0.00  0.00  0.00  0.00
  0142042                 1.00   1.00  0.00  0.00  0.00  0.00  0.00  0.00  0.00  0.00
  0142043                 1.00   0.99  0.01  0.00  0.00  0.00  0.00  0.00  0.00  0.00
  0142044                 1.00   0.00  0.00  0.00  0.00  0.02  0.00  0.98  0.02  0.00
  0142045                 1.00   1.00  0.00  0.00  0.00  0.00  0.00  0.00  0.00  0.00
  0142046                 1.00   0.11  0.00  0.00  0.00  0.00  0.00  0.89  0.00  0.00
  0142047                 1.00   0.00  0.92  0.00  0.08  0.00  0.00  0.00  0.76  0.00
  0142053                 1.00   1.00  0.00  0.00  0.00  0.00  0.00  0.00  0.00  0.00
  0142054                 1.00   0.51  0.49  0.00  0.00  0.00  0.00  0.00  0.00  0.00
  
  
  *************************
  Conduit Surcharge Summary
  *************************
  
  ----------------------------------------------------------------------------
                                                           Hours        Hours 
                         --------- Hours Full --------   Above Full   Capacity
  Conduit                Both Ends  Upstream  Dnstream   Normal Flow   Limited
  ----------------------------------------------------------------------------
  0116001                     0.01      0.01      0.44      0.01         0.01
  0116002                     0.42      0.42      0.49      0.01         0.01
  0116003                     0.01      0.50      0.01      0.01         0.01
  0116015                     0.01      0.01      0.51      0.01         0.01
  0116015A                    0.01      0.51      0.01      0.01         0.01
  0116020                     0.01      0.01     47.40      0.01         0.01
  0116021                     0.58      0.58     47.40      0.01         0.01
  0116022                     0.45      0.45      0.55      0.41         0.43
  0116023                     0.01      0.42      0.01      0.01         0.01
  0116024                     0.01      0.01      0.46      0.01         0.01
  0116025                     0.38      0.38      0.49      0.42         0.37
  0116039                     0.01      0.01      0.38      0.01         0.01
  0116105                     0.01      0.44      0.01      0.01         0.01
  0116111B                    0.01      0.01      0.48      0.01         0.01
  0116148                     0.01      0.47      0.01      0.42         0.01
  0141019                     0.41      0.41      0.54      0.01         0.01
  0141031                     0.01      0.01      0.43      0.01         0.01
  0141032                     0.01      0.01      0.46      0.01         0.01
  0141067                     0.01      0.01      0.43      0.01         0.01
  0141072                     0.35      0.51      0.35      0.01         0.35
  0142046                     0.01      0.44      0.01      0.01         0.01
  0142047                     0.01      0.01      0.46      0.01         0.01
  

  Analysis begun on:  Fri Mar  6 15:34:29 2026
  Analysis ended on:  Fri Mar  6 15:34:29 2026
  Total elapsed time: < 1 sec