
  EPA STORM WATER MANAGEMENT MODEL - VERSION 5.2 (Build 5.2.4)
  ------------------------------------------------------------

  WARNING 03: negative offset ignored for Link OR1@82309b-15009b
  WARNING 03: negative offset ignored for Link WEIR
  
  ****************
  Analysis Options
  ****************
  Flow Units ............... CFS
  Process Models:
    Rainfall/Runoff ........ NO
    RDII ................... NO
    Snowmelt ............... NO
    Groundwater ............ NO
    Flow Routing ........... YES
    Ponding Allowed ........ YES
    Water Quality .......... NO
  Flow Routing Method ...... DYNWAVE
  Surcharge Method ......... EXTRAN
  Starting Date ............ 01/01/1988 00:00:00
  Ending Date .............. 01/01/1988 06:00:00
  Antecedent Dry Days ...... 0.0
  Report Time Step ......... 00:00:10
  Routing Time Step ........ 10.00 sec
  Variable Time Step ....... YES
  Maximum Trials ........... 8
  Number of Threads ........ 1
  Head Tolerance ........... 0.005000 ft
  
  
  *********************
  Control Actions Taken
  *********************

  
  **************************        Volume        Volume
  Flow Routing Continuity        acre-feet      10^6 gal
  **************************     ---------     ---------
  Dry Weather Inflow .......        19.834         6.463
  Wet Weather Inflow .......         0.000         0.000
  Groundwater Inflow .......         0.000         0.000
  RDII Inflow ..............         0.000         0.000
  External Inflow ..........       201.315        65.601
  External Outflow .........       168.375        54.868
  Flooding Loss ............        39.738        12.949
  Evaporation Loss .........         0.111         0.036
  Exfiltration Loss ........         0.000         0.000
  Initial Stored Volume ....         1.569         0.511
  Final Stored Volume ......        16.801         5.475
  Continuity Error (%) .....        -1.036
  
  
  *************************
  Highest Continuity Errors
  *************************
  Node 80608 (51.58%)
  Node 10309 (20.67%)
  Node 81309e (13.72%)
  Node 16009 (8.20%)
  Node 80608a (2.83%)
  
  
  ***************************
  Time-Step Critical Elements
  ***************************
  Link 1600 (1.43%)
  
  
  ********************************
  Highest Flow Instability Indexes
  ********************************
  Link OR1@82309d-82308d (111)
  Link 8040b (28)
  Link 8060b (27)
  Link OR1@82309b-15009b (21)
  Link 8040d (16)
  
  
  *********************************
  Most Frequent Nonconverging Nodes
  *********************************
  Node 10208 (16.51%)
  Node 10208b (16.51%)
  Node 10208c (16.51%)
  Node 10208d (16.51%)
  Node 10208e (16.51%)
  
  
  *************************
  Routing Time Step Summary
  *************************
  Minimum Time Step           :     1.68 sec
  Average Time Step           :     9.93 sec
  Maximum Time Step           :    10.00 sec
  % of Time in Steady State   :     0.00
  Average Iterations per Step :     4.45
  % of Steps Not Converging   :    16.51
  Time Step Frequencies       :
     10.000 -  5.493 sec      :    99.31 %
      5.493 -  3.017 sec      :     0.60 %
      3.017 -  1.657 sec      :     0.09 %
      1.657 -  0.910 sec      :     0.00 %
      0.910 -  0.500 sec      :     0.00 %
  
  
  ******************
  Node Depth Summary
  ******************
  
  ---------------------------------------------------------------------------------
                                 Average  Maximum  Maximum  Time of Max    Reported
                                   Depth    Depth      HGL   Occurrence   Max Depth
  Node                 Type         Feet     Feet     Feet  days hr:min        Feet
  ---------------------------------------------------------------------------------
  10309                JUNCTION     5.60     8.11   109.71     0  03:20        8.11
  10309a               JUNCTION     1.92     2.70   104.30     0  01:51        2.70
  10309b               JUNCTION     1.84     2.86   104.46     0  01:45        2.86
  10309c               JUNCTION     1.85     2.86   104.46     0  03:00        2.86
  10309d               JUNCTION     1.91     2.75   104.35     0  03:06        2.75
  10309e               JUNCTION     1.56     2.41   104.01     0  03:00        2.41
  15009                JUNCTION     1.46     2.45   113.95     0  01:35        2.45
  15009a               JUNCTION     1.45     2.45   113.95     0  01:35        2.45
  15009b               JUNCTION     1.78     2.98   114.48     0  01:25        2.98
  15009c               JUNCTION     0.71     1.26   112.76     0  03:00        1.26
  15009d               JUNCTION     1.45     2.45   113.95     0  01:35        2.45
  15009e               JUNCTION     0.63     1.09   122.09     0  03:07        1.09
  16009                JUNCTION     5.30     7.71   109.71     0  03:20        7.71
  16009a               JUNCTION     2.17     2.94   104.94     0  01:42        2.94
  16009b               JUNCTION     1.96     3.05   105.05     0  01:37        3.05
  16009c               JUNCTION     1.95     3.05   105.05     0  03:00        3.05
  16009d               JUNCTION     2.05     2.94   104.94     0  03:03        2.94
  16009e               JUNCTION     1.66     2.57   104.57     0  03:00        2.57
  16109                JUNCTION     4.67     6.91   109.71     0  03:18        6.91
  16109a               JUNCTION     2.17     2.96   105.76     0  01:50        2.96
  16109b               JUNCTION     1.64     2.85   105.65     0  01:42        2.85
  16109c               JUNCTION     1.49     2.43   105.23     0  03:00        2.43
  16109d               JUNCTION     1.99     2.96   105.76     0  03:02        2.96
  16109e               JUNCTION     1.71     2.87   105.67     0  03:00        2.87
  80408                JUNCTION    13.19    13.40   133.40     0  00:06       13.40
  80408a               JUNCTION     6.89    13.40   138.00     0  00:27       13.40
  80408b               JUNCTION     3.88    13.40   138.00     0  00:48       13.40
  80408c               JUNCTION     1.20     2.35   126.95     0  00:18        2.35
  80408d               JUNCTION     4.37    12.76   137.36     0  02:12       12.76
  80408e               JUNCTION     5.30    13.40   138.00     0  00:43       13.40
  80608                JUNCTION     0.09     0.15   118.45     0  06:00        0.15
  80608a               JUNCTION     8.66    16.70   135.00     0  00:26       16.70
  80608b               JUNCTION     5.68    16.70   135.00     0  00:48       16.70
  80608c               JUNCTION     1.75     3.14   121.44     0  03:00        3.14
  80608d               JUNCTION     6.73    16.70   135.00     0  02:12       16.70
  80608e               JUNCTION     7.13    16.70   135.00     0  00:43       16.70
  81009                JUNCTION     1.47     2.85   131.05     0  00:31        2.85
  81009a               JUNCTION     1.47     2.84   131.04     0  00:31        2.84
  81009b               JUNCTION     1.47     2.85   131.05     0  00:31        2.85
  81009c               JUNCTION     1.47     2.84   131.04     0  00:31        2.84
  81009d               JUNCTION     1.47     2.85   131.05     0  00:31        2.85
  81009e               JUNCTION     3.43     8.80   137.00     0  00:55        8.80
  81309                JUNCTION     1.72     3.09   120.59     0  01:01        3.09
  81309a               JUNCTION     1.72     3.10   120.60     0  01:00        3.10
  81309b               JUNCTION     1.63     2.90   120.40     0  00:53        2.90
  81309c               JUNCTION     1.94     3.40   120.90     0  03:00        3.40
  81309d               JUNCTION     1.72     3.10   120.60     0  01:00        3.10
  81309e               JUNCTION    11.19    12.50   130.00     0  00:39       12.50
  82308d               JUNCTION     9.89    22.14   134.44     0  02:54       22.11
  82309                JUNCTION     2.37     4.64   116.94     0  01:05        4.64
  82309a               JUNCTION    11.63    30.37   142.67     0  00:26       29.22
  82309b               JUNCTION     7.61    18.96   131.26     0  00:48       18.94
  WeirNode             JUNCTION     2.52     4.00   116.30     0  01:05        4.00
  WetWell              JUNCTION     9.30    20.71   133.01     0  00:43       20.61
  10208                OUTFALL      1.30     1.94    91.84     0  03:20        1.94
  10208b               OUTFALL      1.66     2.63    92.53     0  01:45        2.63
  10208c               OUTFALL      1.65     2.63    92.53     0  03:00        2.63
  10208d               OUTFALL      1.72     2.52    92.42     0  03:05        2.52
  10208e               OUTFALL      1.38     2.18    92.08     0  03:00        2.18
  10208a               OUTFALL      4.50     4.50    94.40     0  00:00        4.50
  82309d               STORAGE      9.86    21.30   133.60     0  03:00       21.30
  
  
  *******************
  Node Inflow Summary
  *******************
  
  -------------------------------------------------------------------------------------------------
                                  Maximum  Maximum                  Lateral       Total        Flow
                                  Lateral    Total  Time of Max      Inflow      Inflow     Balance
                                   Inflow   Inflow   Occurrence      Volume      Volume       Error
  Node                 Type           CFS      CFS  days hr:min    10^6 gal    10^6 gal     Percent
  -------------------------------------------------------------------------------------------------
  10309                JUNCTION      0.00    84.43     0  03:01           0        6.35      26.049
  10309a               JUNCTION      0.00   122.39     0  01:41           0        11.2       2.236
  10309b               JUNCTION      0.00   135.18     0  01:34           0        10.8       0.230
  10309c               JUNCTION      0.00   135.00     0  03:00           0        10.9       0.201
  10309d               JUNCTION      0.00   121.90     0  03:03           0        10.6       0.364
  10309e               JUNCTION      0.00    84.60     0  03:00           0        6.78       0.305
  15009                JUNCTION      0.00    50.94     0  01:14           0        4.04       0.125
  15009a               JUNCTION      0.00    51.03     0  01:13           0        4.04       0.420
  15009b               JUNCTION      0.00    72.48     0  01:01           0        5.72       0.133
  15009c               JUNCTION      0.00   100.33     0  03:00           0        7.87      -0.009
  15009d               JUNCTION      0.00    50.99     0  01:13           0        4.04       0.273
  15009e               JUNCTION      0.00    15.01     0  00:37           0        1.16       0.868
  16009                JUNCTION      0.00    89.66     0  02:27           0        6.92       8.930
  16009a               JUNCTION      0.00   122.42     0  01:37           0        11.3       1.047
  16009b               JUNCTION      0.00   135.21     0  01:29           0        10.9       0.344
  16009c               JUNCTION      0.00   135.00     0  03:00           0        10.9       0.006
  16009d               JUNCTION      0.00   121.91     0  03:02           0        10.6       0.486
  16009e               JUNCTION      0.00    84.60     0  03:00           0         6.8       0.269
  16109                JUNCTION      0.00    44.24     0  01:32           0        3.24       0.000
  16109a               JUNCTION      0.00    71.98     0  01:50           0        7.37       0.000
  16109b               JUNCTION      0.00    64.71     0  01:42           0        5.19       0.000
  16109c               JUNCTION      0.00    34.67     0  02:01           0        3.04       0.000
  16109d               JUNCTION      0.00    71.94     0  03:00           0         6.6       0.000
  16109e               JUNCTION      0.00    69.59     0  03:00           0        5.67       0.000
  80408                JUNCTION     66.00    66.00     0  00:15        7.03        7.03       1.241
  80408a               JUNCTION     65.00    65.00     0  00:15        6.87        6.87       0.301
  80408b               JUNCTION     45.00    45.00     0  00:15        3.64        3.64      -0.197
  80408c               JUNCTION     45.00    45.00     0  00:15        3.64        3.64      -0.195
  80408d               JUNCTION     45.00    45.00     0  00:15        3.64        3.64      -0.187
  80408e               JUNCTION     45.00    45.00     0  00:15        3.64        3.64      -0.203
  80608                JUNCTION      0.00     0.06     0  00:06           0     0.00947     106.508
  80608a               JUNCTION      0.00    66.49     0  00:19           0        5.84       2.913
  80608b               JUNCTION      0.00    46.52     0  00:22           0        3.64       1.739
  80608c               JUNCTION      0.00    46.52     0  00:22           0        3.64       0.273
  80608d               JUNCTION      0.00    46.52     0  00:22           0        3.64       1.811
  80608e               JUNCTION      0.00    46.77     0  00:21           0        3.64       1.557
  81009                JUNCTION     50.00    50.00     0  00:15        4.04        4.04      -0.490
  81009a               JUNCTION     50.00    50.00     0  00:15        4.04        4.04      -0.490
  81009b               JUNCTION     50.00    50.00     0  00:15        4.04        4.04      -0.493
  81009c               JUNCTION     50.00    50.00     0  00:15        4.04        4.04      -0.518
  81009d               JUNCTION     50.00    50.00     0  00:15        4.04        4.04      -0.490
  81009e               JUNCTION     50.00    50.00     0  00:15        4.04        4.04       2.046
  81309                JUNCTION      0.00    53.75     0  00:40           0        4.06       0.411
  81309a               JUNCTION      0.00    53.76     0  00:40           0        4.06       0.409
  81309b               JUNCTION      0.00    53.43     0  00:41           0        4.06       0.529
  81309c               JUNCTION      0.00    53.82     0  00:39           0        4.06       0.874
  81309d               JUNCTION      0.00    53.77     0  00:40           0        4.06       0.411
  81309e               JUNCTION      0.00    53.59     0  00:30           0        3.96      15.897
  82308d               JUNCTION      0.00    16.94     0  04:46           0     0.00546       0.000
  82309                JUNCTION     40.00    40.05     0  03:00        3.23        3.24      -0.048
  82309a               JUNCTION     40.00    99.17     0  00:25        3.23        7.55       2.464
  82309b               JUNCTION     40.00    85.59     0  00:48        3.23        6.81      -0.919
  WeirNode             JUNCTION     40.00    85.00     0  03:00        3.23        6.86      -0.071
  WetWell              JUNCTION     40.00    84.59     0  03:00        3.23        6.78      -0.686
  10208                OUTFALL       0.00    63.15     0  03:20           0        5.03       0.000
  10208b               OUTFALL       0.00   135.08     0  01:45           0        10.8       0.000
  10208c               OUTFALL       0.00   134.95     0  03:00           0        10.8       0.000
  10208d               OUTFALL       0.00   121.82     0  03:05           0        10.5       0.000
  10208e               OUTFALL       0.00    84.56     0  03:00           0        6.76       0.000
  10208a               OUTFALL       0.00   122.25     0  01:51           0        10.9       0.000
  82309d               STORAGE      40.00    85.71     0  00:49        3.23        6.61      -0.103
  
  
  **********************
  Node Surcharge Summary
  **********************
  
  Surcharging occurs when water rises above the top of the highest conduit.
  ---------------------------------------------------------------------
                                               Max. Height   Min. Depth
                                   Hours       Above Crown    Below Rim
  Node                 Type      Surcharged           Feet         Feet
  ---------------------------------------------------------------------
  16109                JUNCTION        1.83          0.909       15.291
  80408                JUNCTION        5.89          9.400        0.000
  80408a               JUNCTION        2.70          9.400        0.000
  80408b               JUNCTION        2.24          9.400        0.000
  80408d               JUNCTION        2.17          8.758        0.642
  80408e               JUNCTION        2.34          9.400        0.000
  80608a               JUNCTION        2.80         12.700        0.000
  80608b               JUNCTION        2.44         12.700        0.000
  80608d               JUNCTION        2.91         12.700        0.000
  80608e               JUNCTION        2.52         12.700        0.000
  81009e               JUNCTION        2.15          4.300        0.000
  81309e               JUNCTION        5.34          8.000        0.000
  82308d               JUNCTION        4.54         20.141       20.559
  82309a               JUNCTION        2.92         24.170       12.330
  82309b               JUNCTION        2.61         12.759       23.741
  WetWell              JUNCTION        2.69         14.515        0.285
  
  
  *********************
  Node Flooding Summary
  *********************
  
  Flooding refers to all water that overflows a node, whether it ponds or not.
  --------------------------------------------------------------------------
                                                             Total   Maximum
                                 Maximum   Time of Max       Flood    Ponded
                        Hours       Rate    Occurrence      Volume     Depth
  Node                 Flooded       CFS   days hr:min    10^6 gal      Feet
  --------------------------------------------------------------------------
  80408                   5.89     65.94      0  00:15       6.933     0.000
  80408a                  2.63     46.00      0  00:27       1.001     0.000
  80408b                  0.01      6.07      0  00:48       0.001     0.000
  80408e                  0.01      9.32      0  00:43       0.001     0.000
  80608a                  2.66     40.32      0  00:26       1.359     0.000
  80608b                  0.01      1.76      0  00:48       0.000     0.000
  80608d                  0.86     12.65      0  03:00       0.204     0.000
  80608e                  2.29      4.61      0  00:43       0.035     0.000
  81009e                  0.01      8.13      0  00:55       0.001     0.000
  81309e                  2.91     49.99      0  00:56       3.413     0.000
  
  
  **********************
  Storage Volume Summary
  **********************
  
  ------------------------------------------------------------------------------------------------
                         Average    Avg   Evap  Exfil     Maximum    Max    Time of Max    Maximum
                          Volume   Pcnt   Pcnt   Pcnt      Volume   Pcnt     Occurrence    Outflow
  Storage Unit          1000 ftł   Full   Loss   Loss    1000 ftł   Full    days hr:min        CFS
  ------------------------------------------------------------------------------------------------
  82309d                   7.890   23.1    0.0    0.0      17.042   49.9       0  03:00      72.04
  
  
  ***********************
  Outfall Loading Summary
  ***********************
  
  -----------------------------------------------------------
                         Flow       Avg       Max       Total
                         Freq      Flow      Flow      Volume
  Outfall Node           Pcnt       CFS       CFS    10^6 gal
  -----------------------------------------------------------
  10208                 91.36     34.13     63.15       5.029
  10208b                93.01     72.26    135.08      10.818
  10208c                94.67     71.14    134.95      10.842
  10208d                92.41     70.61    121.82      10.511
  10208e                92.74     45.26     84.56       6.756
  10208a                91.77     73.79    122.25      10.908
  -----------------------------------------------------------
  System                92.66    367.20    657.35      54.864
  
  
  ********************
  Link Flow Summary
  ********************
  
  -----------------------------------------------------------------------------
                                 Maximum  Time of Max   Maximum    Max/    Max/
                                  |Flow|   Occurrence   |Veloc|    Full    Full
  Link                 Type          CFS  days hr:min    ft/sec    Flow   Depth
  -----------------------------------------------------------------------------
  1030e                CONDUIT     84.56     0  03:00      5.35    0.03    0.26
  1030                 CONDUIT     63.15     0  03:20      0.83    0.26    0.56
  1030a                CONDUIT    122.25     0  01:51      3.14    0.04    0.40
  1030b                CONDUIT    135.08     0  01:45      5.98    0.04    0.30
  1030c                CONDUIT    134.95     0  03:00      5.98    0.04    0.30
  1030d                CONDUIT    121.82     0  03:05      5.83    0.04    0.29
  1570                 CONDUIT     50.43     0  01:35      4.25    0.41    0.72
  1570a                CONDUIT     50.47     0  01:35      4.36    0.41    0.49
  1570b                CONDUIT     70.56     0  01:25      5.29    0.57    0.55
  1570c                CONDUIT    100.33     0  03:00     11.62    0.11    0.39
  1570d                CONDUIT     50.45     0  01:35      4.48    0.41    0.49
  1570e                CONDUIT     15.01     0  03:07      2.23    0.09    0.33
  1600                 CONDUIT     39.65     0  02:27      4.11    0.27    1.00
  1600a                CONDUIT     71.99     0  01:59      5.99    0.49    0.49
  1600b                CONDUIT     64.71     0  01:51      4.69    0.44    0.49
  1600c                CONDUIT     35.83     0  03:09      3.23    0.24    0.46
  1600d                CONDUIT     71.91     0  03:02      5.20    0.49    0.49
  1600e                CONDUIT     69.59     0  03:00      5.65    0.47    0.45
  1602                 CONDUIT     44.24     0  01:32      2.74    1.02    0.89
  1602a                CONDUIT     71.98     0  01:50      4.33    1.66    0.80
  1602b                CONDUIT     64.71     0  01:42      4.06    1.49    0.79
  1602c                CONDUIT     34.67     0  02:01      2.60    0.80    0.64
  1602d                CONDUIT     71.94     0  03:00      4.29    1.66    0.80
  1602e                CONDUIT     69.59     0  03:00      4.22    1.60    0.79
  1630                 CONDUIT     84.43     0  03:01      4.66    0.04    0.88
  1630a                CONDUIT    122.39     0  01:41      7.46    0.05    0.31
  1630b                CONDUIT    135.18     0  01:34      5.76    0.06    0.33
  1630c                CONDUIT    135.00     0  03:00      6.33    0.06    0.33
  1630d                CONDUIT    121.90     0  03:03      5.49    0.05    0.32
  1630e                CONDUIT     84.60     0  03:00      5.19    0.04    0.28
  8040                 CONDUIT      0.06     0  00:06      0.07    1.58    0.52
  8040a                CONDUIT     66.49     0  00:19      7.64    0.90    1.00
  8040b                CONDUIT     46.52     0  00:22      7.11    0.63    1.00
  8040c                CONDUIT     46.52     0  00:22      7.11    0.63    0.68
  8040d                CONDUIT     46.52     0  00:22      7.11    0.63    1.00
  8040e                CONDUIT     46.77     0  00:21      7.11    0.64    1.00
  8060                 CONDUIT      0.05     0  03:20      0.64    0.00    0.31
  8060a                CONDUIT     59.17     0  00:25      5.26    1.11    1.00
  8060b                CONDUIT     46.69     0  03:11      4.85    0.88    1.00
  8060c                CONDUIT     45.00     0  03:00      5.27    0.84    0.64
  8060d                CONDUIT     45.70     0  00:49      4.79    0.86    1.00
  8060e                CONDUIT     46.42     0  03:07      4.74    0.87    1.00
  8100                 CONDUIT     53.75     0  00:40      6.47    0.69    0.64
  8100a                CONDUIT     53.76     0  00:40      6.47    0.69    0.64
  8100b                CONDUIT     53.43     0  00:41      6.53    0.68    0.62
  8100c                CONDUIT     53.82     0  00:39      6.47    0.69    0.67
  8100d                CONDUIT     53.77     0  00:40      6.47    0.69    0.64
  8100e                CONDUIT     53.59     0  00:30      6.41    0.69    1.00
  8130                 CONDUIT     50.94     0  01:14      5.53    0.72    0.61
  8130a                CONDUIT     51.03     0  01:13      5.63    0.72    0.61
  8130b                CONDUIT     51.97     0  01:01      4.90    0.74    0.64
  8130c                CONDUIT     50.00     0  03:00      6.52    0.71    0.52
  8130d                CONDUIT     50.99     0  01:13      5.54    0.72    0.61
  8130e                CONDUIT      0.01     0  00:31      0.00    0.00    0.62
  Pump1                PUMP        15.00     0  00:33              1.00
  OR1@82309d-82308d    ORIFICE     16.94     0  04:46                      1.00
  OR1@82309b-15009b    ORIFICE     22.30     0  00:48                      1.00
  WEIR                 WEIR        51.46     0  00:31                      0.50
  
  
  ***************************
  Flow Classification Summary
  ***************************
  
  -------------------------------------------------------------------------------------
                      Adjusted    ---------- Fraction of Time in Flow Class ---------- 
                       /Actual         Up    Down  Sub   Sup   Up    Down  Norm  Inlet 
  Conduit               Length    Dry  Dry   Dry   Crit  Crit  Crit  Crit  Ltd   Ctrl  
  -------------------------------------------------------------------------------------
  1030e                   1.00   0.04  0.00  0.00  0.96  0.00  0.00  0.00  0.00  0.00
  1030                    1.00   0.04  0.00  0.00  0.96  0.00  0.00  0.00  0.00  0.00
  1030a                   1.00   0.00  0.06  0.00  0.94  0.00  0.00  0.00  0.94  0.00
  1030b                   1.00   0.04  0.00  0.00  0.96  0.00  0.00  0.00  0.00  0.00
  1030c                   1.00   0.03  0.00  0.00  0.97  0.00  0.00  0.00  0.00  0.00
  1030d                   1.00   0.04  0.00  0.00  0.96  0.00  0.00  0.00  0.00  0.00
  1570                    1.00   0.00  0.00  0.00  1.00  0.00  0.00  0.00  0.91  0.00
  1570a                   1.00   0.00  0.00  0.00  1.00  0.00  0.00  0.00  0.95  0.00
  1570b                   1.00   0.00  0.00  0.00  0.98  0.02  0.00  0.00  0.89  0.00
  1570c                   5.02   0.00  0.00  0.00  0.46  0.54  0.00  0.00  1.00  0.00
  1570d                   1.00   0.00  0.00  0.00  1.00  0.00  0.00  0.00  0.93  0.00
  1570e                   1.00   0.00  0.08  0.00  0.92  0.00  0.00  0.00  0.92  0.00
  1600                    1.00   0.00  0.00  0.00  0.97  0.03  0.00  0.00  0.02  0.00
  1600a                   1.00   0.00  0.00  0.00  0.97  0.03  0.00  0.00  0.34  0.00
  1600b                   1.00   0.00  0.00  0.00  1.00  0.00  0.00  0.00  0.29  0.00
  1600c                   1.00   0.00  0.00  0.00  1.00  0.00  0.00  0.00  0.41  0.00
  1600d                   1.00   0.00  0.00  0.00  0.97  0.03  0.00  0.00  0.30  0.00
  1600e                   1.00   0.00  0.00  0.00  0.97  0.03  0.00  0.00  0.43  0.00
  1602                    1.00   0.00  0.00  0.00  1.00  0.00  0.00  0.00  0.60  0.00
  1602a                   1.00   0.00  0.00  0.00  1.00  0.00  0.00  0.00  0.00  0.00
  1602b                   1.00   0.00  0.00  0.00  1.00  0.00  0.00  0.00  0.34  0.00
  1602c                   1.00   0.00  0.00  0.00  1.00  0.00  0.00  0.00  0.00  0.00
  1602d                   1.00   0.00  0.00  0.00  1.00  0.00  0.00  0.00  0.00  0.00
  1602e                   1.00   0.00  0.00  0.00  1.00  0.00  0.00  0.00  0.00  0.00
  1630                    1.00   0.00  0.00  0.00  0.96  0.03  0.00  0.00  0.00  0.00
  1630a                   1.00   0.00  0.00  0.00  0.93  0.07  0.00  0.00  0.00  0.00
  1630b                   1.00   0.00  0.00  0.00  0.95  0.05  0.00  0.00  0.26  0.00
  1630c                   1.00   0.00  0.00  0.00  0.97  0.03  0.00  0.00  0.31  0.00
  1630d                   1.00   0.00  0.00  0.00  0.95  0.05  0.00  0.00  0.17  0.00
  1630e                   1.00   0.00  0.00  0.00  0.95  0.05  0.00  0.00  0.30  0.00
  8040                    1.00   0.00  0.00  0.00  1.00  0.00  0.00  0.00  0.00  0.00
  8040a                   1.00   0.00  0.00  0.00  0.97  0.03  0.00  0.00  0.48  0.00
  8040b                   1.00   0.00  0.00  0.00  0.96  0.04  0.00  0.00  0.53  0.00
  8040c                   1.00   0.00  0.00  0.00  0.96  0.04  0.00  0.00  0.94  0.00
  8040d                   1.00   0.00  0.00  0.00  0.96  0.04  0.00  0.00  0.49  0.00
  8040e                   1.00   0.00  0.00  0.00  0.96  0.04  0.00  0.00  0.52  0.00
  8060                    1.00   0.00  0.00  0.00  0.52  0.00  0.00  0.48  0.51  0.00
  8060a                   1.00   0.00  0.00  0.00  0.61  0.00  0.00  0.39  0.08  0.00
  8060b                   1.00   0.00  0.00  0.00  0.54  0.00  0.00  0.45  0.09  0.00
  8060c                   1.00   0.00  0.00  0.00  0.00  0.00  0.00  1.00  0.00  0.00
  8060d                   1.00   0.00  0.00  0.00  0.70  0.00  0.00  0.30  0.12  0.00
  8060e                   1.00   0.00  0.00  0.00  0.57  0.00  0.00  0.43  0.10  0.00
  8100                    1.00   0.00  0.00  0.00  0.96  0.04  0.00  0.00  0.89  0.00
  8100a                   1.00   0.00  0.00  0.00  0.96  0.04  0.00  0.00  0.89  0.00
  8100b                   1.00   0.00  0.00  0.00  0.96  0.04  0.00  0.00  0.88  0.00
  8100c                   1.00   0.00  0.00  0.00  0.96  0.04  0.00  0.00  0.89  0.00
  8100d                   1.00   0.00  0.00  0.00  0.96  0.04  0.00  0.00  0.89  0.00
  8100e                   1.00   0.00  0.00  0.00  0.96  0.04  0.00  0.00  0.03  0.00
  8130                    1.00   0.00  0.00  0.00  0.96  0.04  0.00  0.00  0.45  0.00
  8130a                   1.00   0.00  0.00  0.00  0.96  0.04  0.00  0.00  0.45  0.00
  8130b                   1.00   0.00  0.00  0.00  1.00  0.00  0.00  0.00  0.86  0.00
  8130c                   1.00   0.00  0.00  0.00  0.83  0.17  0.00  0.00  0.00  0.00
  8130d                   1.00   0.00  0.00  0.00  0.96  0.04  0.00  0.00  0.45  0.00
  8130e                   1.00   0.00  0.08  0.00  0.92  0.00  0.00  0.00  0.01  0.00
  
  
  *************************
  Conduit Surcharge Summary
  *************************
  
  ----------------------------------------------------------------------------
                                                           Hours        Hours 
                         --------- Hours Full --------   Above Full   Capacity
  Conduit                Both Ends  Upstream  Dnstream   Normal Flow   Limited
  ----------------------------------------------------------------------------
  1570                        0.01      0.01      3.65      0.01         0.01
  1600                        1.83      1.83      2.93      0.01         0.01
  1602                        0.01      0.01      3.24      0.38         0.01
  1602a                       0.01      3.19      0.01      3.12         0.01
  1602b                       0.01      2.86      0.01      2.74         0.01
  1602d                       0.01      3.68      0.01      3.53         0.01
  1602e                       0.01      2.93      0.01      2.82         0.01
  8040                        0.01      5.89      0.01      5.89         0.01
  8040a                       2.70      2.70      2.80      0.01         0.01
  8040b                       2.24      2.24      2.44      0.01         0.01
  8040d                       2.17      2.17      2.91      0.01         0.01
  8040e                       2.33      2.33      2.51      0.01         0.01
  8060a                       2.80      2.80      2.92      0.06         0.01
  8060b                       2.44      2.44      2.61      0.01         0.01
  8060d                       2.91      2.91      3.49      0.01         0.01
  8060e                       2.51      2.51      2.69      0.01         0.01
  8100e                       2.15      2.15      5.34      0.01         0.01
  8130e                       0.01      0.01      5.34      0.01         0.01
  
  
  ***************
  Pumping Summary
  ***************
  
  ---------------------------------------------------------------------------------------------------------
                                                  Min       Avg       Max     Total     Power    % Time Off
                        Percent   Number of      Flow      Flow      Flow    Volume     Usage    Pump Curve
  Pump                 Utilized   Start-Ups       CFS       CFS       CFS  10^6 gal     Kw-hr    Low   High
  ---------------------------------------------------------------------------------------------------------
  Pump1                   55.86           1      0.00     12.82     15.00     1.156     32.38    0.0   76.8
  

  Analysis begun on:  Fri Mar  6 15:34:30 2026
  Analysis ended on:  Fri Mar  6 15:34:30 2026
  Total elapsed time: < 1 sec