
  EPA STORM WATER MANAGEMENT MODEL - VERSION 5.2 (Build 5.2.4)
  ------------------------------------------------------------

  WARNING 03: negative offset ignored for Link OR1@82309b-15009b
  WARNING 03: negative offset ignored for Link WEIR
  
  ****************
  Analysis Options
  ****************
  Flow Units ............... CFS
  Process Models:
    Rainfall/Runoff ........ NO
    RDII ................... NO
    Snowmelt ............... NO
    Groundwater ............ NO
    Flow Routing ........... YES
    Ponding Allowed ........ YES
    Water Quality .......... NO
  Flow Routing Method ...... DYNWAVE
  Surcharge Method ......... EXTRAN
  Starting Date ............ 01/01/1988 00:00:00
  Ending Date .............. 01/01/1988 06:00:00
  Antecedent Dry Days ...... 0.0
  Report Time Step ......... 00:00:01
  Routing Time Step ........ 1.00 sec
  Variable Time Step ....... YES
  Maximum Trials ........... 8
  Number of Threads ........ 1
  Head Tolerance ........... 0.005000 ft
  
  
  *********************
  Control Actions Taken
  *********************
   01/01/1988: 00:16:20 Link WEIR setting changed to   0.00 by Control Weir100
   01/01/1988: 00:17:15 Link WEIR setting changed to   1.00 by Control Weir99
   01/01/1988: 00:21:08 Link WEIR setting changed to   0.00 by Control Weir101
   01/01/1988: 00:22:01 Link WEIR setting changed to   1.00 by Control Weir99
   01/01/1988: 03:06:18 Link WEIR setting changed to   0.00 by Control Weir101
   01/01/1988: 03:06:19 Link WEIR setting changed to   1.00 by Control Weir99
   01/01/1988: 03:06:23 Link WEIR setting changed to   0.00 by Control Weir101
   01/01/1988: 03:06:24 Link WEIR setting changed to   1.00 by Control Weir99
   01/01/1988: 03:06:28 Link WEIR setting changed to   0.00 by Control Weir101
   01/01/1988: 03:06:29 Link WEIR setting changed to   1.00 by Control Weir99
   01/01/1988: 03:06:33 Link WEIR setting changed to   0.00 by Control Weir101
   01/01/1988: 03:06:34 Link WEIR setting changed to   1.00 by Control Weir99
   01/01/1988: 03:06:38 Link WEIR setting changed to   0.00 by Control Weir101
   01/01/1988: 03:06:39 Link WEIR setting changed to   1.00 by Control Weir99
   01/01/1988: 03:06:42 Link WEIR setting changed to   0.00 by Control Weir101
   01/01/1988: 03:06:43 Link WEIR setting changed to   1.00 by Control Weir99
   01/01/1988: 03:06:47 Link WEIR setting changed to   0.00 by Control Weir101
   01/01/1988: 03:06:48 Link WEIR setting changed to   1.00 by Control Weir99
   01/01/1988: 03:06:51 Link WEIR setting changed to   0.00 by Control Weir101
   01/01/1988: 03:06:52 Link WEIR setting changed to   1.00 by Control Weir99
   01/01/1988: 03:06:55 Link WEIR setting changed to   0.00 by Control Weir101
   01/01/1988: 03:06:56 Link WEIR setting changed to   1.00 by Control Weir99
   01/01/1988: 03:07:00 Link WEIR setting changed to   0.00 by Control Weir101
   01/01/1988: 03:07:01 Link WEIR setting changed to   1.00 by Control Weir99
   01/01/1988: 03:07:04 Link WEIR setting changed to   0.00 by Control Weir101
   01/01/1988: 03:07:05 Link WEIR setting changed to   1.00 by Control Weir99
   01/01/1988: 03:07:08 Link WEIR setting changed to   0.00 by Control Weir101
   01/01/1988: 03:07:09 Link WEIR setting changed to   1.00 by Control Weir99
   01/01/1988: 03:07:12 Link WEIR setting changed to   0.00 by Control Weir101
   01/01/1988: 03:07:13 Link WEIR setting changed to   1.00 by Control Weir99
   01/01/1988: 03:07:16 Link WEIR setting changed to   0.00 by Control Weir101
   01/01/1988: 03:07:17 Link WEIR setting changed to   1.00 by Control Weir99
   01/01/1988: 03:07:19 Link WEIR setting changed to   0.00 by Control Weir101
   01/01/1988: 03:07:20 Link WEIR setting changed to   1.00 by Control Weir99
   01/01/1988: 03:07:23 Link WEIR setting changed to   0.00 by Control Weir101
   01/01/1988: 03:07:24 Link WEIR setting changed to   1.00 by Control Weir99
   01/01/1988: 03:07:27 Link WEIR setting changed to   0.00 by Control Weir101
   01/01/1988: 03:07:28 Link WEIR setting changed to   1.00 by Control Weir99
   01/01/1988: 03:07:31 Link WEIR setting changed to   0.00 by Control Weir101
   01/01/1988: 03:07:33 Link WEIR setting changed to   1.00 by Control Weir99
   01/01/1988: 03:07:38 Link WEIR setting changed to   0.00 by Control Weir101
   01/01/1988: 03:07:40 Link WEIR setting changed to   1.00 by Control Weir99
   01/01/1988: 03:07:44 Link WEIR setting changed to   0.00 by Control Weir101
   01/01/1988: 03:07:45 Link WEIR setting changed to   1.00 by Control Weir99
   01/01/1988: 03:07:48 Link WEIR setting changed to   0.00 by Control Weir101
   01/01/1988: 03:07:49 Link WEIR setting changed to   1.00 by Control Weir99
   01/01/1988: 03:07:51 Link WEIR setting changed to   0.00 by Control Weir101
   01/01/1988: 03:07:52 Link WEIR setting changed to   1.00 by Control Weir99
   01/01/1988: 03:07:55 Link WEIR setting changed to   0.00 by Control Weir101
   01/01/1988: 03:07:57 Link WEIR setting changed to   1.00 by Control Weir99
   01/01/1988: 03:08:01 Link WEIR setting changed to   0.00 by Control Weir101
   01/01/1988: 03:08:02 Link WEIR setting changed to   1.00 by Control Weir99
   01/01/1988: 03:08:04 Link WEIR setting changed to   0.00 by Control Weir101
   01/01/1988: 03:08:05 Link WEIR setting changed to   1.00 by Control Weir99
   01/01/1988: 03:08:07 Link WEIR setting changed to   0.00 by Control Weir101
   01/01/1988: 03:08:08 Link WEIR setting changed to   1.00 by Control Weir99
   01/01/1988: 03:08:10 Link WEIR setting changed to   0.00 by Control Weir101
   01/01/1988: 03:08:11 Link WEIR setting changed to   1.00 by Control Weir99
   01/01/1988: 03:08:13 Link WEIR setting changed to   0.00 by Control Weir101
   01/01/1988: 03:08:14 Link WEIR setting changed to   1.00 by Control Weir99
   01/01/1988: 03:08:16 Link WEIR setting changed to   0.00 by Control Weir101
   01/01/1988: 03:08:17 Link WEIR setting changed to   1.00 by Control Weir99
   01/01/1988: 03:08:19 Link WEIR setting changed to   0.00 by Control Weir101
   01/01/1988: 03:08:20 Link WEIR setting changed to   1.00 by Control Weir99
   01/01/1988: 03:08:22 Link WEIR setting changed to   0.00 by Control Weir101
   01/01/1988: 03:08:23 Link WEIR setting changed to   1.00 by Control Weir99
   01/01/1988: 03:08:25 Link WEIR setting changed to   0.00 by Control Weir101
   01/01/1988: 03:08:26 Link WEIR setting changed to   1.00 by Control Weir99
   01/01/1988: 03:08:28 Link WEIR setting changed to   0.00 by Control Weir101
   01/01/1988: 03:08:29 Link WEIR setting changed to   1.00 by Control Weir99
   01/01/1988: 03:08:31 Link WEIR setting changed to   0.00 by Control Weir101
   01/01/1988: 03:08:32 Link WEIR setting changed to   1.00 by Control Weir99
   01/01/1988: 03:08:34 Link WEIR setting changed to   0.00 by Control Weir101
   01/01/1988: 03:08:36 Link WEIR setting changed to   1.00 by Control Weir99
   01/01/1988: 03:08:40 Link WEIR setting changed to   0.00 by Control Weir101
   01/01/1988: 03:08:42 Link WEIR setting changed to   1.00 by Control Weir99
   01/01/1988: 03:08:45 Link WEIR setting changed to   0.00 by Control Weir101
   01/01/1988: 03:08:47 Link WEIR setting changed to   1.00 by Control Weir99
   01/01/1988: 03:08:51 Link WEIR setting changed to   0.00 by Control Weir101
   01/01/1988: 03:08:53 Link WEIR setting changed to   1.00 by Control Weir99
   01/01/1988: 03:08:56 Link WEIR setting changed to   0.00 by Control Weir101
   01/01/1988: 03:08:58 Link WEIR setting changed to   1.00 by Control Weir99
   01/01/1988: 03:09:01 Link WEIR setting changed to   0.00 by Control Weir101
   01/01/1988: 03:09:03 Link WEIR setting changed to   1.00 by Control Weir99
   01/01/1988: 03:09:06 Link WEIR setting changed to   0.00 by Control Weir101
   01/01/1988: 03:09:08 Link WEIR setting changed to   1.00 by Control Weir99
   01/01/1988: 03:09:11 Link WEIR setting changed to   0.00 by Control Weir101
   01/01/1988: 03:09:12 Link WEIR setting changed to   1.00 by Control Weir99
   01/01/1988: 03:09:14 Link WEIR setting changed to   0.00 by Control Weir101
   01/01/1988: 03:09:16 Link WEIR setting changed to   1.00 by Control Weir99
   01/01/1988: 03:09:19 Link WEIR setting changed to   0.00 by Control Weir101
   01/01/1988: 03:09:21 Link WEIR setting changed to   1.00 by Control Weir99
   01/01/1988: 03:09:24 Link WEIR setting changed to   0.00 by Control Weir101
   01/01/1988: 03:09:26 Link WEIR setting changed to   1.00 by Control Weir99
   01/01/1988: 03:09:28 Link WEIR setting changed to   0.00 by Control Weir101
   01/01/1988: 03:09:29 Link WEIR setting changed to   1.00 by Control Weir99
   01/01/1988: 03:09:31 Link WEIR setting changed to   0.00 by Control Weir101
   01/01/1988: 03:09:33 Link WEIR setting changed to   1.00 by Control Weir99
   01/01/1988: 03:09:36 Link WEIR setting changed to   0.00 by Control Weir101
   01/01/1988: 03:09:38 Link WEIR setting changed to   1.00 by Control Weir99
   01/01/1988: 03:09:40 Link WEIR setting changed to   0.00 by Control Weir101
   01/01/1988: 03:09:42 Link WEIR setting changed to   1.00 by Control Weir99
   01/01/1988: 03:09:45 Link WEIR setting changed to   0.00 by Control Weir101
   01/01/1988: 03:09:47 Link WEIR setting changed to   1.00 by Control Weir99
   01/01/1988: 03:09:49 Link WEIR setting changed to   0.00 by Control Weir101
   01/01/1988: 03:09:51 Link WEIR setting changed to   1.00 by Control Weir99
   01/01/1988: 03:09:54 Link WEIR setting changed to   0.00 by Control Weir101
   01/01/1988: 03:09:56 Link WEIR setting changed to   1.00 by Control Weir99
   01/01/1988: 03:09:58 Link WEIR setting changed to   0.00 by Control Weir101
   01/01/1988: 03:10:00 Link WEIR setting changed to   1.00 by Control Weir99
   01/01/1988: 03:10:03 Link WEIR setting changed to   0.00 by Control Weir101
   01/01/1988: 03:10:05 Link WEIR setting changed to   1.00 by Control Weir99
   01/01/1988: 03:10:07 Link WEIR setting changed to   0.00 by Control Weir101
   01/01/1988: 03:10:09 Link WEIR setting changed to   1.00 by Control Weir99
   01/01/1988: 03:10:11 Link WEIR setting changed to   0.00 by Control Weir101
   01/01/1988: 03:10:13 Link WEIR setting changed to   1.00 by Control Weir99
   01/01/1988: 03:10:15 Link WEIR setting changed to   0.00 by Control Weir101
   01/01/1988: 03:10:16 Link WEIR setting changed to   1.00 by Control Weir99
   01/01/1988: 03:10:18 Link WEIR setting changed to   0.00 by Control Weir101
   01/01/1988: 03:10:20 Link WEIR setting changed to   1.00 by Control Weir99
   01/01/1988: 03:10:22 Link WEIR setting changed to   0.00 by Control Weir101
   01/01/1988: 03:10:24 Link WEIR setting changed to   1.00 by Control Weir99
   01/01/1988: 03:10:26 Link WEIR setting changed to   0.00 by Control Weir101
   01/01/1988: 03:10:28 Link WEIR setting changed to   1.00 by Control Weir99
   01/01/1988: 03:10:30 Link WEIR setting changed to   0.00 by Control Weir101
   01/01/1988: 03:10:32 Link WEIR setting changed to   1.00 by Control Weir99
   01/01/1988: 03:10:34 Link WEIR setting changed to   0.00 by Control Weir101
   01/01/1988: 03:10:36 Link WEIR setting changed to   1.00 by Control Weir99
   01/01/1988: 03:10:38 Link WEIR setting changed to   0.00 by Control Weir101
   01/01/1988: 03:10:40 Link WEIR setting changed to   1.00 by Control Weir99
   01/01/1988: 03:10:42 Link WEIR setting changed to   0.00 by Control Weir101
   01/01/1988: 03:10:44 Link WEIR setting changed to   1.00 by Control Weir99
   01/01/1988: 03:10:46 Link WEIR setting changed to   0.00 by Control Weir101
   01/01/1988: 03:10:48 Link WEIR setting changed to   1.00 by Control Weir99
   01/01/1988: 03:10:50 Link WEIR setting changed to   0.00 by Control Weir101
   01/01/1988: 03:10:52 Link WEIR setting changed to   1.00 by Control Weir99
   01/01/1988: 03:10:54 Link WEIR setting changed to   0.00 by Control Weir101
   01/01/1988: 03:10:57 Link WEIR setting changed to   1.00 by Control Weir99
   01/01/1988: 03:10:59 Link WEIR setting changed to   0.00 by Control Weir101
   01/01/1988: 03:11:01 Link WEIR setting changed to   1.00 by Control Weir99
   01/01/1988: 03:11:03 Link WEIR setting changed to   0.00 by Control Weir101
   01/01/1988: 03:11:05 Link WEIR setting changed to   1.00 by Control Weir99
   01/01/1988: 03:11:07 Link WEIR setting changed to   0.00 by Control Weir101
   01/01/1988: 03:11:09 Link WEIR setting changed to   1.00 by Control Weir99
   01/01/1988: 03:11:10 Link WEIR setting changed to   0.00 by Control Weir101
   01/01/1988: 03:11:12 Link WEIR setting changed to   1.00 by Control Weir99
   01/01/1988: 03:11:14 Link WEIR setting changed to   0.00 by Control Weir101
   01/01/1988: 03:11:16 Link WEIR setting changed to   1.00 by Control Weir99
   01/01/1988: 03:11:18 Link WEIR setting changed to   0.00 by Control Weir101
   01/01/1988: 03:11:21 Link WEIR setting changed to   1.00 by Control Weir99
   01/01/1988: 03:11:23 Link WEIR setting changed to   0.00 by Control Weir101
   01/01/1988: 03:11:25 Link WEIR setting changed to   1.00 by Control Weir99
   01/01/1988: 03:11:27 Link WEIR setting changed to   0.00 by Control Weir101
   01/01/1988: 03:11:30 Link WEIR setting changed to   1.00 by Control Weir99
   01/01/1988: 03:11:32 Link WEIR setting changed to   0.00 by Control Weir101
   01/01/1988: 03:11:34 Link WEIR setting changed to   1.00 by Control Weir99
   01/01/1988: 03:11:35 Link WEIR setting changed to   0.00 by Control Weir101
   01/01/1988: 03:11:37 Link WEIR setting changed to   1.00 by Control Weir99
   01/01/1988: 03:11:39 Link WEIR setting changed to   0.00 by Control Weir101
   01/01/1988: 03:11:42 Link WEIR setting changed to   1.00 by Control Weir99
   01/01/1988: 03:11:44 Link WEIR setting changed to   0.00 by Control Weir101
   01/01/1988: 03:11:46 Link WEIR setting changed to   1.00 by Control Weir99
   01/01/1988: 03:11:47 Link WEIR setting changed to   0.00 by Control Weir101
   01/01/1988: 03:11:49 Link WEIR setting changed to   1.00 by Control Weir99
   01/01/1988: 03:11:51 Link WEIR setting changed to   0.00 by Control Weir101
   01/01/1988: 03:11:54 Link WEIR setting changed to   1.00 by Control Weir99
   01/01/1988: 03:11:56 Link WEIR setting changed to   0.00 by Control Weir101
   01/01/1988: 03:11:59 Link WEIR setting changed to   1.00 by Control Weir99
   01/01/1988: 03:12:01 Link WEIR setting changed to   0.00 by Control Weir101
   01/01/1988: 03:12:04 Link WEIR setting changed to   1.00 by Control Weir99
   01/01/1988: 03:12:06 Link WEIR setting changed to   0.00 by Control Weir101
   01/01/1988: 03:12:09 Link WEIR setting changed to   1.00 by Control Weir99
   01/01/1988: 03:12:11 Link WEIR setting changed to   0.00 by Control Weir101
   01/01/1988: 03:12:14 Link WEIR setting changed to   1.00 by Control Weir99
   01/01/1988: 03:12:15 Link WEIR setting changed to   0.00 by Control Weir101
   01/01/1988: 03:12:17 Link WEIR setting changed to   1.00 by Control Weir99
   01/01/1988: 03:12:19 Link WEIR setting changed to   0.00 by Control Weir101
   01/01/1988: 03:12:23 Link WEIR setting changed to   1.00 by Control Weir99
   01/01/1988: 03:12:25 Link WEIR setting changed to   0.00 by Control Weir101
   01/01/1988: 03:12:28 Link WEIR setting changed to   1.00 by Control Weir99
   01/01/1988: 03:12:30 Link WEIR setting changed to   0.00 by Control Weir101
   01/01/1988: 03:12:34 Link WEIR setting changed to   1.00 by Control Weir99
   01/01/1988: 03:12:36 Link WEIR setting changed to   0.00 by Control Weir101
   01/01/1988: 03:12:40 Link WEIR setting changed to   1.00 by Control Weir99
   01/01/1988: 03:12:42 Link WEIR setting changed to   0.00 by Control Weir101
   01/01/1988: 03:12:45 Link WEIR setting changed to   1.00 by Control Weir99
   01/01/1988: 03:12:46 Link WEIR setting changed to   0.00 by Control Weir101
   01/01/1988: 03:12:48 Link WEIR setting changed to   1.00 by Control Weir99
   01/01/1988: 03:12:49 Link WEIR setting changed to   0.00 by Control Weir101
   01/01/1988: 03:12:51 Link WEIR setting changed to   1.00 by Control Weir99
   01/01/1988: 03:12:52 Link WEIR setting changed to   0.00 by Control Weir101
   01/01/1988: 03:12:55 Link WEIR setting changed to   1.00 by Control Weir99
   01/01/1988: 03:12:57 Link WEIR setting changed to   0.00 by Control Weir101
   01/01/1988: 03:13:01 Link WEIR setting changed to   1.00 by Control Weir99
   01/01/1988: 03:13:03 Link WEIR setting changed to   0.00 by Control Weir101
   01/01/1988: 03:13:07 Link WEIR setting changed to   1.00 by Control Weir99
   01/01/1988: 03:13:08 Link WEIR setting changed to   0.00 by Control Weir101
   01/01/1988: 03:13:11 Link WEIR setting changed to   1.00 by Control Weir99
   01/01/1988: 03:13:13 Link WEIR setting changed to   0.00 by Control Weir101
   01/01/1988: 03:13:17 Link WEIR setting changed to   1.00 by Control Weir99
   01/01/1988: 03:13:18 Link WEIR setting changed to   0.00 by Control Weir101
   01/01/1988: 03:13:21 Link WEIR setting changed to   1.00 by Control Weir99
   01/01/1988: 03:13:23 Link WEIR setting changed to   0.00 by Control Weir101
   01/01/1988: 03:13:28 Link WEIR setting changed to   1.00 by Control Weir99
   01/01/1988: 03:13:29 Link WEIR setting changed to   0.00 by Control Weir101
   01/01/1988: 03:13:31 Link WEIR setting changed to   1.00 by Control Weir99
   01/01/1988: 03:13:32 Link WEIR setting changed to   0.00 by Control Weir101
   01/01/1988: 03:13:35 Link WEIR setting changed to   1.00 by Control Weir99
   01/01/1988: 03:13:36 Link WEIR setting changed to   0.00 by Control Weir101
   01/01/1988: 03:13:39 Link WEIR setting changed to   1.00 by Control Weir99
   01/01/1988: 03:13:40 Link WEIR setting changed to   0.00 by Control Weir101
   01/01/1988: 03:13:43 Link WEIR setting changed to   1.00 by Control Weir99
   01/01/1988: 03:13:44 Link WEIR setting changed to   0.00 by Control Weir101
   01/01/1988: 03:13:46 Link WEIR setting changed to   1.00 by Control Weir99
   01/01/1988: 03:13:47 Link WEIR setting changed to   0.00 by Control Weir101
   01/01/1988: 03:13:50 Link WEIR setting changed to   1.00 by Control Weir99
   01/01/1988: 03:13:51 Link WEIR setting changed to   0.00 by Control Weir101
   01/01/1988: 03:13:54 Link WEIR setting changed to   1.00 by Control Weir99
   01/01/1988: 03:13:55 Link WEIR setting changed to   0.00 by Control Weir101
   01/01/1988: 03:13:59 Link WEIR setting changed to   1.00 by Control Weir99
   01/01/1988: 03:14:00 Link WEIR setting changed to   0.00 by Control Weir101
   01/01/1988: 03:14:03 Link WEIR setting changed to   1.00 by Control Weir99
   01/01/1988: 03:14:04 Link WEIR setting changed to   0.00 by Control Weir101
   01/01/1988: 03:14:07 Link WEIR setting changed to   1.00 by Control Weir99
   01/01/1988: 03:14:08 Link WEIR setting changed to   0.00 by Control Weir101
   01/01/1988: 03:14:12 Link WEIR setting changed to   1.00 by Control Weir99
   01/01/1988: 03:14:13 Link WEIR setting changed to   0.00 by Control Weir101
   01/01/1988: 03:14:16 Link WEIR setting changed to   1.00 by Control Weir99
   01/01/1988: 03:14:17 Link WEIR setting changed to   0.00 by Control Weir101
   01/01/1988: 03:14:21 Link WEIR setting changed to   1.00 by Control Weir99
   01/01/1988: 03:14:22 Link WEIR setting changed to   0.00 by Control Weir101
   01/01/1988: 03:14:26 Link WEIR setting changed to   1.00 by Control Weir99
   01/01/1988: 03:14:27 Link WEIR setting changed to   0.00 by Control Weir101
   01/01/1988: 03:14:31 Link WEIR setting changed to   1.00 by Control Weir99
   01/01/1988: 03:14:32 Link WEIR setting changed to   0.00 by Control Weir101
   01/01/1988: 03:14:36 Link WEIR setting changed to   1.00 by Control Weir99
   01/01/1988: 03:14:37 Link WEIR setting changed to   0.00 by Control Weir101
   01/01/1988: 03:14:41 Link WEIR setting changed to   1.00 by Control Weir99
   01/01/1988: 03:14:42 Link WEIR setting changed to   0.00 by Control Weir101
   01/01/1988: 03:14:47 Link WEIR setting changed to   1.00 by Control Weir99
   01/01/1988: 03:14:48 Link WEIR setting changed to   0.00 by Control Weir101
   01/01/1988: 03:14:52 Link WEIR setting changed to   1.00 by Control Weir99
   01/01/1988: 03:14:53 Link WEIR setting changed to   0.00 by Control Weir101
   01/01/1988: 03:14:59 Link WEIR setting changed to   1.00 by Control Weir99
   01/01/1988: 03:15:00 Link WEIR setting changed to   0.00 by Control Weir101
   01/01/1988: 03:15:05 Link WEIR setting changed to   1.00 by Control Weir99
   01/01/1988: 03:15:06 Link WEIR setting changed to   0.00 by Control Weir101
   01/01/1988: 03:15:11 Link WEIR setting changed to   1.00 by Control Weir99
   01/01/1988: 03:15:12 Link WEIR setting changed to   0.00 by Control Weir101
   01/01/1988: 03:15:18 Link WEIR setting changed to   1.00 by Control Weir99
   01/01/1988: 03:15:19 Link WEIR setting changed to   0.00 by Control Weir101
   01/01/1988: 03:15:25 Link WEIR setting changed to   1.00 by Control Weir99
   01/01/1988: 03:15:26 Link WEIR setting changed to   0.00 by Control Weir101
   01/01/1988: 03:15:32 Link WEIR setting changed to   1.00 by Control Weir99
   01/01/1988: 03:15:33 Link WEIR setting changed to   0.00 by Control Weir101
   01/01/1988: 03:15:39 Link WEIR setting changed to   1.00 by Control Weir99
   01/01/1988: 03:15:40 Link WEIR setting changed to   0.00 by Control Weir101
   01/01/1988: 03:15:47 Link WEIR setting changed to   1.00 by Control Weir99
   01/01/1988: 03:15:48 Link WEIR setting changed to   0.00 by Control Weir101
   01/01/1988: 03:15:54 Link WEIR setting changed to   1.00 by Control Weir99
   01/01/1988: 03:15:55 Link WEIR setting changed to   0.00 by Control Weir101
   01/01/1988: 03:16:02 Link WEIR setting changed to   1.00 by Control Weir99
   01/01/1988: 03:16:03 Link WEIR setting changed to   0.00 by Control Weir101
   01/01/1988: 03:16:10 Link WEIR setting changed to   1.00 by Control Weir99
   01/01/1988: 03:16:11 Link WEIR setting changed to   0.00 by Control Weir101
   01/01/1988: 03:16:19 Link WEIR setting changed to   1.00 by Control Weir99
   01/01/1988: 03:16:20 Link WEIR setting changed to   0.00 by Control Weir101
   01/01/1988: 03:16:28 Link WEIR setting changed to   1.00 by Control Weir99
   01/01/1988: 03:16:29 Link WEIR setting changed to   0.00 by Control Weir101
   01/01/1988: 03:16:37 Link WEIR setting changed to   1.00 by Control Weir99
   01/01/1988: 03:16:38 Link WEIR setting changed to   0.00 by Control Weir101
   01/01/1988: 03:16:47 Link WEIR setting changed to   1.00 by Control Weir99
   01/01/1988: 03:16:48 Link WEIR setting changed to   0.00 by Control Weir101
   01/01/1988: 03:16:57 Link WEIR setting changed to   1.00 by Control Weir99
   01/01/1988: 03:16:58 Link WEIR setting changed to   0.00 by Control Weir101
   01/01/1988: 03:17:07 Link WEIR setting changed to   1.00 by Control Weir99
   01/01/1988: 03:17:08 Link WEIR setting changed to   0.00 by Control Weir101
   01/01/1988: 03:17:19 Link WEIR setting changed to   1.00 by Control Weir99
   01/01/1988: 03:17:20 Link WEIR setting changed to   0.00 by Control Weir101
   01/01/1988: 03:17:31 Link WEIR setting changed to   1.00 by Control Weir99
   01/01/1988: 03:17:32 Link WEIR setting changed to   0.00 by Control Weir101
   01/01/1988: 03:17:44 Link WEIR setting changed to   1.00 by Control Weir99
   01/01/1988: 03:17:45 Link WEIR setting changed to   0.00 by Control Weir101
   01/01/1988: 03:17:58 Link WEIR setting changed to   1.00 by Control Weir99
   01/01/1988: 03:17:59 Link WEIR setting changed to   0.00 by Control Weir101
   01/01/1988: 03:18:14 Link WEIR setting changed to   1.00 by Control Weir99
   01/01/1988: 03:18:15 Link WEIR setting changed to   0.00 by Control Weir101
   01/01/1988: 03:18:33 Link WEIR setting changed to   1.00 by Control Weir99
   01/01/1988: 03:18:34 Link WEIR setting changed to   0.00 by Control Weir101
   01/01/1988: 03:18:55 Link WEIR setting changed to   1.00 by Control Weir99
   01/01/1988: 03:18:56 Link WEIR setting changed to   0.00 by Control Weir101
   01/01/1988: 03:19:24 Link WEIR setting changed to   1.00 by Control Weir99
   01/01/1988: 03:19:25 Link WEIR setting changed to   0.00 by Control Weir101
   01/01/1988: 03:32:11 Link WEIR setting changed to   1.00 by Control Weir99
   01/01/1988: 03:33:15 Link WEIR setting changed to   0.00 by Control Weir100
   01/01/1988: 03:42:16 Link WEIR setting changed to   1.00 by Control Weir99

  
  **************************        Volume        Volume
  Flow Routing Continuity        acre-feet      10^6 gal
  **************************     ---------     ---------
  Dry Weather Inflow .......        19.834         6.463
  Wet Weather Inflow .......         0.000         0.000
  Groundwater Inflow .......         0.000         0.000
  RDII Inflow ..............         0.000         0.000
  External Inflow ..........       201.315        65.601
  External Outflow .........       168.757        54.992
  Flooding Loss ............        39.767        12.959
  Evaporation Loss .........         0.111         0.036
  Exfiltration Loss ........         0.000         0.000
  Initial Stored Volume ....         1.569         0.511
  Final Stored Volume ......        16.735         5.453
  Continuity Error (%) .....        -1.191
  
  
  *************************
  Highest Continuity Errors
  *************************
  Node 80608 (51.61%)
  Node 10309 (20.59%)
  Node 81309e (13.73%)
  Node 16009 (8.20%)
  Node 80608a (2.87%)
  
  
  ***************************
  Time-Step Critical Elements
  ***************************
  None
  
  
  ********************************
  Highest Flow Instability Indexes
  ********************************
  Link OR1@82309d-82308d (96)
  Link OR1@82309b-15009b (6)
  Link 8040d (2)
  Link 8060b (2)
  Link 8040e (2)
  
  
  *********************************
  Most Frequent Nonconverging Nodes
  *********************************
  Node 10208 (4.46%)
  Node 10208b (4.46%)
  Node 10208c (4.46%)
  Node 10208d (4.46%)
  Node 10208e (4.46%)
  
  
  *************************
  Routing Time Step Summary
  *************************
  Minimum Time Step           :     0.50 sec
  Average Time Step           :     1.00 sec
  Maximum Time Step           :     1.00 sec
  % of Time in Steady State   :     0.00
  Average Iterations per Step :     2.75
  % of Steps Not Converging   :     4.46
  Time Step Frequencies       :
      1.000 -  0.871 sec      :   100.00 %
      0.871 -  0.758 sec      :     0.00 %
      0.758 -  0.660 sec      :     0.00 %
      0.660 -  0.574 sec      :     0.00 %
      0.574 -  0.500 sec      :     0.00 %
  
  
  ******************
  Node Depth Summary
  ******************
  
  ---------------------------------------------------------------------------------
                                 Average  Maximum  Maximum  Time of Max    Reported
                                   Depth    Depth      HGL   Occurrence   Max Depth
  Node                 Type         Feet     Feet     Feet  days hr:min        Feet
  ---------------------------------------------------------------------------------
  10309                JUNCTION     5.60     8.11   109.71     0  03:20        8.11
  10309a               JUNCTION     1.92     2.70   104.30     0  01:51        2.70
  10309b               JUNCTION     1.84     2.86   104.46     0  01:45        2.86
  10309c               JUNCTION     1.85     2.86   104.46     0  03:00        2.86
  10309d               JUNCTION     1.92     2.75   104.35     0  03:05        2.75
  10309e               JUNCTION     1.56     2.41   104.01     0  03:00        2.41
  15009                JUNCTION     1.45     2.45   113.95     0  01:36        2.45
  15009a               JUNCTION     1.45     2.45   113.95     0  01:36        2.45
  15009b               JUNCTION     1.78     2.98   114.48     0  01:25        2.98
  15009c               JUNCTION     0.78     1.33   112.83     0  03:00        1.33
  15009d               JUNCTION     1.45     2.45   113.95     0  01:36        2.45
  15009e               JUNCTION     0.63     1.09   122.09     0  03:07        1.09
  16009                JUNCTION     5.30     7.71   109.71     0  03:20        7.71
  16009a               JUNCTION     2.17     2.94   104.94     0  01:42        2.94
  16009b               JUNCTION     1.96     3.05   105.05     0  01:37        3.05
  16009c               JUNCTION     1.95     3.05   105.05     0  03:00        3.05
  16009d               JUNCTION     2.06     2.94   104.94     0  03:03        2.94
  16009e               JUNCTION     1.66     2.57   104.57     0  03:00        2.57
  16109                JUNCTION     4.67     6.91   109.71     0  03:18        6.91
  16109a               JUNCTION     2.17     2.96   105.76     0  01:50        2.96
  16109b               JUNCTION     1.64     2.85   105.65     0  01:42        2.85
  16109c               JUNCTION     1.34     2.32   105.12     0  03:00        2.32
  16109d               JUNCTION     2.00     2.96   105.76     0  03:01        2.96
  16109e               JUNCTION     1.71     2.87   105.67     0  03:00        2.87
  80408                JUNCTION    13.20    13.40   133.40     0  00:06       13.40
  80408a               JUNCTION     6.86    13.40   138.00     0  00:27       13.40
  80408b               JUNCTION     3.86    13.40   138.00     0  00:48       13.40
  80408c               JUNCTION     1.20     2.35   126.95     0  00:18        2.35
  80408d               JUNCTION     4.37    13.40   138.00     0  01:10       13.40
  80408e               JUNCTION     5.26    13.40   138.00     0  00:42       13.40
  80608                JUNCTION     0.09     0.15   118.45     0  06:00        0.15
  80608a               JUNCTION     8.62    16.70   135.00     0  00:26       16.70
  80608b               JUNCTION     5.65    16.70   135.00     0  00:41       16.70
  80608c               JUNCTION     1.75     3.14   121.44     0  03:00        3.14
  80608d               JUNCTION     6.75    16.70   135.00     0  00:48       16.70
  80608e               JUNCTION     7.09    16.70   135.00     0  00:37       16.70
  81009                JUNCTION     1.47     2.84   131.04     0  00:31        2.84
  81009a               JUNCTION     1.47     2.84   131.04     0  00:31        2.84
  81009b               JUNCTION     1.47     2.85   131.05     0  00:31        2.85
  81009c               JUNCTION     1.47     2.85   131.05     0  00:31        2.85
  81009d               JUNCTION     1.47     2.84   131.04     0  00:31        2.84
  81009e               JUNCTION     3.41     8.80   137.00     0  00:55        8.80
  81309                JUNCTION     1.72     3.09   120.59     0  01:01        3.09
  81309a               JUNCTION     1.72     3.10   120.60     0  01:00        3.10
  81309b               JUNCTION     1.62     2.90   120.40     0  00:53        2.90
  81309c               JUNCTION     1.94     3.40   120.90     0  03:00        3.40
  81309d               JUNCTION     1.72     3.10   120.60     0  01:01        3.10
  81309e               JUNCTION    11.19    12.50   130.00     0  00:39       12.50
  82308d               JUNCTION     9.93    33.96   146.26     0  03:00       21.31
  82309                JUNCTION     2.37     4.64   116.94     0  01:04        4.64
  82309a               JUNCTION    11.59    42.70   155.00     0  00:26       42.70
  82309b               JUNCTION     7.58    42.70   155.00     0  00:36       36.55
  WeirNode             JUNCTION     1.60     2.68   114.98     0  01:33        2.68
  WetWell              JUNCTION     9.26    21.00   133.30     0  00:32       21.00
  10208                OUTFALL      1.30     1.94    91.84     0  03:20        1.94
  10208b               OUTFALL      1.65     2.63    92.53     0  01:45        2.63
  10208c               OUTFALL      1.65     2.63    92.53     0  03:00        2.63
  10208d               OUTFALL      1.72     2.52    92.42     0  03:05        2.52
  10208e               OUTFALL      1.38     2.18    92.08     0  03:00        2.18
  10208a               OUTFALL      4.50     4.50    94.40     0  00:00        4.50
  82309d               STORAGE      9.93    21.31   133.61     0  03:00       21.31
  
  
  *******************
  Node Inflow Summary
  *******************
  
  -------------------------------------------------------------------------------------------------
                                  Maximum  Maximum                  Lateral       Total        Flow
                                  Lateral    Total  Time of Max      Inflow      Inflow     Balance
                                   Inflow   Inflow   Occurrence      Volume      Volume       Error
  Node                 Type           CFS      CFS  days hr:min    10^6 gal    10^6 gal     Percent
  -------------------------------------------------------------------------------------------------
  10309                JUNCTION      0.00    84.44     0  03:00           0        6.35      25.935
  10309a               JUNCTION      0.00   122.38     0  01:41           0        11.2       2.220
  10309b               JUNCTION      0.00   135.18     0  01:34           0        10.8       0.212
  10309c               JUNCTION      0.00   135.00     0  03:00           0        10.9       0.119
  10309d               JUNCTION      0.00   121.92     0  03:03           0        10.6       0.358
  10309e               JUNCTION      0.00    84.60     0  03:00           0        6.78       0.285
  15009                JUNCTION      0.00    50.93     0  01:14           0        4.04       0.112
  15009a               JUNCTION      0.00    51.01     0  01:13           0        4.04       0.404
  15009b               JUNCTION      0.00    72.46     0  01:01           0        5.72       0.127
  15009c               JUNCTION      0.00   112.90     0  03:00           0        9.02      -0.052
  15009d               JUNCTION      0.00    50.98     0  01:14           0        4.04       0.256
  15009e               JUNCTION      0.00    15.01     0  00:36           0        1.16       0.833
  16009                JUNCTION      0.00    89.77     0  02:27           0        6.92       8.928
  16009a               JUNCTION      0.00   122.41     0  01:37           0        11.3       1.037
  16009b               JUNCTION      0.00   135.21     0  01:30           0        10.9       0.336
  16009c               JUNCTION      0.00   135.00     0  03:00           0          11      -0.020
  16009d               JUNCTION      0.00   121.93     0  03:01           0        10.7       0.487
  16009e               JUNCTION      0.00    84.60     0  03:00           0         6.8       0.260
  16109                JUNCTION      0.00    44.23     0  01:32           0        3.24       0.000
  16109a               JUNCTION      0.00    71.98     0  01:50           0        7.38       0.000
  16109b               JUNCTION      0.00    64.71     0  01:36           0        5.19       0.000
  16109c               JUNCTION      0.00    26.68     0  00:27           0        1.94       0.000
  16109d               JUNCTION      0.00    71.95     0  03:00           0        6.67       0.000
  16109e               JUNCTION      0.00    69.59     0  03:00           0        5.67       0.000
  80408                JUNCTION     66.00    66.00     0  00:15        7.03        7.03       1.232
  80408a               JUNCTION     65.00    65.00     0  00:15        6.87        6.87       0.362
  80408b               JUNCTION     45.00    45.00     0  00:15        3.64        3.64      -0.171
  80408c               JUNCTION     45.00    45.00     0  00:15        3.64        3.64      -0.185
  80408d               JUNCTION     45.00    45.00     0  00:15        3.64        3.64      -0.200
  80408e               JUNCTION     45.00    45.00     0  00:15        3.64        3.64      -0.179
  80608                JUNCTION      0.00     0.06     0  00:06           0     0.00947     106.659
  80608a               JUNCTION      0.00    66.51     0  00:19           0        5.84       2.953
  80608b               JUNCTION      0.00    46.50     0  00:22           0        3.64       1.711
  80608c               JUNCTION      0.00    46.50     0  00:22           0        3.64       0.263
  80608d               JUNCTION      0.00    46.50     0  00:22           0        3.64       1.714
  80608e               JUNCTION      0.00    46.73     0  00:21           0        3.64       1.548
  81009                JUNCTION     50.00    50.00     0  00:15        4.04        4.04      -0.485
  81009a               JUNCTION     50.00    50.00     0  00:15        4.04        4.04      -0.485
  81009b               JUNCTION     50.00    50.00     0  00:15        4.04        4.04      -0.488
  81009c               JUNCTION     50.00    50.00     0  00:15        4.04        4.04      -0.524
  81009d               JUNCTION     50.00    50.00     0  00:15        4.04        4.04      -0.485
  81009e               JUNCTION     50.00    50.00     0  00:15        4.04        4.04       2.104
  81309                JUNCTION      0.00    53.73     0  00:40           0        4.06       0.395
  81309a               JUNCTION      0.00    53.74     0  00:40           0        4.06       0.393
  81309b               JUNCTION      0.00    53.40     0  00:41           0        4.06       0.510
  81309c               JUNCTION      0.00    53.90     0  00:40           0        4.06       1.002
  81309d               JUNCTION      0.00    53.74     0  00:40           0        4.06       0.395
  81309e               JUNCTION      0.00    53.50     0  00:29           0        3.96      15.911
  82308d               JUNCTION      0.00     2.65     0  04:45           0     0.00261       0.000
  82309                JUNCTION     40.00    40.05     0  03:00        3.23        3.24      -0.054
  82309a               JUNCTION     40.00    99.04     0  00:25        3.23        7.55       2.318
  82309b               JUNCTION     40.00    85.05     0  00:48        3.23        6.81      -0.903
  WeirNode             JUNCTION     40.00    85.00     0  03:00        3.23        6.86      -0.267
  WetWell              JUNCTION     40.00    84.59     0  03:00        3.23        6.78      -0.695
  10208                OUTFALL       0.00    63.17     0  03:20           0        5.04       0.000
  10208b               OUTFALL       0.00   135.09     0  01:45           0        10.8       0.000
  10208c               OUTFALL       0.00   134.95     0  03:00           0        10.9       0.000
  10208d               OUTFALL       0.00   121.84     0  03:05           0        10.6       0.000
  10208e               OUTFALL       0.00    84.56     0  03:00           0        6.76       0.000
  10208a               OUTFALL       0.00   122.24     0  01:51           0        10.9       0.000
  82309d               STORAGE      40.00    85.90     0  00:49        3.23        6.59      -1.307
  
  
  **********************
  Node Surcharge Summary
  **********************
  
  Surcharging occurs when water rises above the top of the highest conduit.
  ---------------------------------------------------------------------
                                               Max. Height   Min. Depth
                                   Hours       Above Crown    Below Rim
  Node                 Type      Surcharged           Feet         Feet
  ---------------------------------------------------------------------
  16109                JUNCTION        1.83          0.912       15.288
  80408                JUNCTION        5.90          9.400        0.000
  80408a               JUNCTION        2.70          9.400        0.000
  80408b               JUNCTION        2.25          9.400        0.000
  80408d               JUNCTION        2.19          9.400        0.000
  80408e               JUNCTION        2.34          9.400        0.000
  80608a               JUNCTION        2.81         12.700        0.000
  80608b               JUNCTION        2.44         12.700        0.000
  80608d               JUNCTION        2.94         12.700        0.000
  80608e               JUNCTION        2.52         12.700        0.000
  81009e               JUNCTION        2.16          4.300        0.000
  81309e               JUNCTION        5.35          8.000        0.000
  82308d               JUNCTION        4.50         31.962        8.738
  82309a               JUNCTION        2.95         36.500        0.000
  82309b               JUNCTION        2.61         36.500        0.000
  WetWell              JUNCTION        2.69         14.800        0.000
  
  
  *********************
  Node Flooding Summary
  *********************
  
  Flooding refers to all water that overflows a node, whether it ponds or not.
  --------------------------------------------------------------------------
                                                             Total   Maximum
                                 Maximum   Time of Max       Flood    Ponded
                        Hours       Rate    Occurrence      Volume     Depth
  Node                 Flooded       CFS   days hr:min    10^6 gal      Feet
  --------------------------------------------------------------------------
  80408                   5.90     65.94      0  00:15       6.933     0.000
  80408a                  2.62     50.70      0  00:27       0.999     0.000
  80408b                  0.01      9.33      0  00:48       0.001     0.000
  80408d                  0.01      5.46      0  01:10       0.000     0.000
  80408e                  0.01     12.45      0  00:42       0.002     0.000
  80608a                  2.66     54.46      0  00:26       1.353     0.000
  80608b                  0.01     19.39      0  00:41       0.001     0.000
  80608d                  0.90     12.74      0  03:00       0.219     0.000
  80608e                  2.29     19.86      0  00:37       0.035     0.000
  81009e                  0.01      9.52      0  00:55       0.001     0.000
  81309e                  2.91     50.63      0  00:39       3.411     0.000
  82309a                  0.01     54.78      0  00:26       0.001     0.000
  82309b                  0.01     16.92      0  00:36       0.000     0.000
  WetWell                 0.01     24.61      0  00:32       0.001     0.000
  
  
  **********************
  Storage Volume Summary
  **********************
  
  ------------------------------------------------------------------------------------------------
                         Average    Avg   Evap  Exfil     Maximum    Max    Time of Max    Maximum
                          Volume   Pcnt   Pcnt   Pcnt      Volume   Pcnt     Occurrence    Outflow
  Storage Unit          1000 ftł   Full   Loss   Loss    1000 ftł   Full    days hr:min        CFS
  ------------------------------------------------------------------------------------------------
  82309d                   7.947   23.3    0.0    0.0      17.048   49.9       0  03:00      71.95
  
  
  ***********************
  Outfall Loading Summary
  ***********************
  
  -----------------------------------------------------------
                         Flow       Avg       Max       Total
                         Freq      Flow      Flow      Volume
  Outfall Node           Pcnt       CFS       CFS    10^6 gal
  -----------------------------------------------------------
  10208                 91.43     34.09     63.17       5.035
  10208b                93.19     71.87    135.09      10.821
  10208c                98.08     68.60    134.95      10.871
  10208d                92.54     70.77    121.84      10.582
  10208e                92.85     45.04     84.56       6.757
  10208a                91.77     73.66    122.24      10.922
  -----------------------------------------------------------
  System                93.31    364.02    657.43      54.988
  
  
  ********************
  Link Flow Summary
  ********************
  
  -----------------------------------------------------------------------------
                                 Maximum  Time of Max   Maximum    Max/    Max/
                                  |Flow|   Occurrence   |Veloc|    Full    Full
  Link                 Type          CFS  days hr:min    ft/sec    Flow   Depth
  -----------------------------------------------------------------------------
  1030e                CONDUIT     84.56     0  03:00      5.35    0.03    0.26
  1030                 CONDUIT     63.17     0  03:20      0.83    0.26    0.56
  1030a                CONDUIT    122.24     0  01:51      3.14    0.04    0.40
  1030b                CONDUIT    135.09     0  01:45      5.98    0.04    0.30
  1030c                CONDUIT    134.95     0  03:00      5.98    0.04    0.30
  1030d                CONDUIT    121.84     0  03:05      5.83    0.04    0.29
  1570                 CONDUIT     50.42     0  01:36      4.25    0.41    0.72
  1570a                CONDUIT     50.46     0  01:36      4.36    0.41    0.49
  1570b                CONDUIT     70.55     0  01:25      5.29    0.57    0.55
  1570c                CONDUIT    112.90     0  03:00     12.77    0.13    0.40
  1570d                CONDUIT     50.45     0  01:36      4.48    0.41    0.49
  1570e                CONDUIT     15.01     0  03:07      2.23    0.09    0.33
  1600                 CONDUIT     39.75     0  02:27      4.10    0.27    1.00
  1600a                CONDUIT     71.99     0  01:59      5.95    0.49    0.49
  1600b                CONDUIT     64.71     0  01:50      4.69    0.44    0.49
  1600c                CONDUIT     27.91     0  03:10      2.89    0.19    0.45
  1600d                CONDUIT     71.93     0  03:02      5.20    0.49    0.49
  1600e                CONDUIT     69.59     0  03:00      5.65    0.47    0.45
  1602                 CONDUIT     44.23     0  01:32      2.74    1.02    0.89
  1602a                CONDUIT     71.98     0  01:50      4.33    1.66    0.80
  1602b                CONDUIT     64.71     0  01:36      4.03    1.49    0.79
  1602c                CONDUIT     22.10     0  03:00      2.25    0.51    0.50
  1602d                CONDUIT     71.95     0  03:00      4.29    1.66    0.80
  1602e                CONDUIT     69.59     0  03:00      4.22    1.60    0.79
  1630                 CONDUIT     84.44     0  03:00      4.65    0.04    0.88
  1630a                CONDUIT    122.38     0  01:41      7.37    0.05    0.31
  1630b                CONDUIT    135.18     0  01:34      5.73    0.06    0.33
  1630c                CONDUIT    135.00     0  03:00      5.50    0.06    0.33
  1630d                CONDUIT    121.92     0  03:03      5.46    0.05    0.32
  1630e                CONDUIT     84.60     0  03:00      5.18    0.04    0.28
  8040                 CONDUIT      0.06     0  00:06      0.01    1.58    0.52
  8040a                CONDUIT     66.51     0  00:19      7.63    0.90    1.00
  8040b                CONDUIT     46.50     0  00:22      7.11    0.63    1.00
  8040c                CONDUIT     46.50     0  00:22      7.11    0.63    0.68
  8040d                CONDUIT     46.50     0  00:22      7.11    0.63    1.00
  8040e                CONDUIT     46.73     0  00:21      7.11    0.63    1.00
  8060                 CONDUIT      0.05     0  03:20      0.65    0.00    0.31
  8060a                CONDUIT     59.04     0  00:25      5.22    1.11    1.00
  8060b                CONDUIT     47.21     0  03:11      4.85    0.89    1.00
  8060c                CONDUIT     45.00     0  03:00      5.27    0.84    0.64
  8060d                CONDUIT     45.90     0  00:49      4.78    0.86    1.00
  8060e                CONDUIT     46.65     0  03:07      4.74    0.88    1.00
  8100                 CONDUIT     53.73     0  00:40      6.46    0.69    0.63
  8100a                CONDUIT     53.74     0  00:40      6.46    0.69    0.64
  8100b                CONDUIT     53.40     0  00:41      6.52    0.68    0.62
  8100c                CONDUIT     53.90     0  00:40      6.56    0.69    0.67
  8100d                CONDUIT     53.74     0  00:40      6.46    0.69    0.64
  8100e                CONDUIT     53.50     0  00:29      6.40    0.69    1.00
  8130                 CONDUIT     50.93     0  01:14      5.54    0.72    0.61
  8130a                CONDUIT     51.01     0  01:13      5.63    0.72    0.61
  8130b                CONDUIT     51.96     0  01:01      4.90    0.74    0.64
  8130c                CONDUIT     50.00     0  03:00      6.64    0.71    0.53
  8130d                CONDUIT     50.98     0  01:14      5.55    0.72    0.61
  8130e                CONDUIT      0.01     0  00:30      0.00    0.00    0.62
  Pump1                PUMP        15.00     0  00:32              1.00
  OR1@82309d-82308d    ORIFICE      2.65     0  04:45                      1.00
  OR1@82309b-15009b    ORIFICE     29.09     0  00:36                      1.00
  WEIR                 WEIR        62.93     0  01:20                      0.33
  
  
  ***************************
  Flow Classification Summary
  ***************************
  
  -------------------------------------------------------------------------------------
                      Adjusted    ---------- Fraction of Time in Flow Class ---------- 
                       /Actual         Up    Down  Sub   Sup   Up    Down  Norm  Inlet 
  Conduit               Length    Dry  Dry   Dry   Crit  Crit  Crit  Crit  Ltd   Ctrl  
  -------------------------------------------------------------------------------------
  1030e                   1.00   0.04  0.00  0.00  0.96  0.00  0.00  0.00  0.00  0.00
  1030                    1.00   0.04  0.00  0.00  0.96  0.00  0.00  0.00  0.00  0.00
  1030a                   1.00   0.00  0.06  0.00  0.94  0.00  0.00  0.00  0.94  0.00
  1030b                   1.00   0.04  0.00  0.00  0.96  0.00  0.00  0.00  0.00  0.00
  1030c                   1.00   0.00  0.00  0.00  1.00  0.00  0.00  0.00  0.00  0.00
  1030d                   1.00   0.04  0.00  0.00  0.96  0.00  0.00  0.00  0.00  0.00
  1570                    1.00   0.00  0.00  0.00  1.00  0.00  0.00  0.00  0.91  0.00
  1570a                   1.00   0.00  0.00  0.00  1.00  0.00  0.00  0.00  0.95  0.00
  1570b                   1.00   0.00  0.00  0.00  0.97  0.03  0.00  0.00  0.89  0.00
  1570c                   1.00   0.00  0.00  0.00  0.40  0.60  0.00  0.00  0.99  0.00
  1570d                   1.00   0.00  0.00  0.00  1.00  0.00  0.00  0.00  0.93  0.00
  1570e                   1.00   0.00  0.08  0.00  0.92  0.00  0.00  0.00  0.92  0.00
  1600                    1.00   0.00  0.00  0.00  0.97  0.03  0.00  0.00  0.02  0.00
  1600a                   1.00   0.00  0.00  0.00  0.96  0.04  0.00  0.00  0.35  0.00
  1600b                   1.00   0.00  0.00  0.00  1.00  0.00  0.00  0.00  0.29  0.00
  1600c                   1.00   0.00  0.00  0.00  1.00  0.00  0.00  0.00  0.38  0.00
  1600d                   1.00   0.00  0.00  0.00  0.96  0.04  0.00  0.00  0.30  0.00
  1600e                   1.00   0.00  0.00  0.00  0.96  0.04  0.00  0.00  0.43  0.00
  1602                    1.00   0.00  0.00  0.00  1.00  0.00  0.00  0.00  0.60  0.00
  1602a                   1.00   0.00  0.00  0.00  1.00  0.00  0.00  0.00  0.00  0.00
  1602b                   1.00   0.00  0.00  0.00  1.00  0.00  0.00  0.00  0.34  0.00
  1602c                   1.00   0.00  0.00  0.00  1.00  0.00  0.00  0.00  0.37  0.00
  1602d                   1.00   0.00  0.00  0.00  1.00  0.00  0.00  0.00  0.00  0.00
  1602e                   1.00   0.00  0.00  0.00  1.00  0.00  0.00  0.00  0.00  0.00
  1630                    1.00   0.00  0.00  0.00  0.96  0.04  0.00  0.00  0.00  0.00
  1630a                   1.00   0.00  0.00  0.00  0.92  0.07  0.00  0.00  0.00  0.00
  1630b                   1.00   0.00  0.00  0.00  0.94  0.06  0.00  0.00  0.28  0.00
  1630c                   1.00   0.00  0.00  0.00  0.96  0.04  0.00  0.00  0.32  0.00
  1630d                   1.00   0.00  0.00  0.00  0.95  0.05  0.00  0.00  0.18  0.00
  1630e                   1.00   0.00  0.00  0.00  0.94  0.05  0.00  0.00  0.32  0.00
  8040                    1.00   0.00  0.00  0.00  1.00  0.00  0.00  0.00  0.00  0.00
  8040a                   1.00   0.00  0.00  0.00  0.97  0.03  0.00  0.00  0.48  0.00
  8040b                   1.00   0.00  0.00  0.00  0.96  0.04  0.00  0.00  0.53  0.00
  8040c                   1.00   0.00  0.00  0.00  0.96  0.04  0.00  0.00  0.94  0.00
  8040d                   1.00   0.00  0.00  0.00  0.96  0.04  0.00  0.00  0.49  0.00
  8040e                   1.00   0.00  0.00  0.00  0.96  0.04  0.00  0.00  0.52  0.00
  8060                    1.00   0.01  0.00  0.00  0.52  0.00  0.00  0.48  0.51  0.00
  8060a                   1.00   0.00  0.00  0.00  0.62  0.00  0.00  0.38  0.08  0.00
  8060b                   1.00   0.00  0.00  0.00  0.54  0.00  0.00  0.46  0.09  0.00
  8060c                   1.00   0.00  0.00  0.00  0.00  0.00  0.00  1.00  0.00  0.00
  8060d                   1.00   0.00  0.00  0.00  0.71  0.00  0.00  0.29  0.12  0.00
  8060e                   1.00   0.00  0.00  0.00  0.57  0.00  0.00  0.43  0.10  0.00
  8100                    1.00   0.00  0.00  0.00  0.96  0.04  0.00  0.00  0.89  0.00
  8100a                   1.00   0.00  0.00  0.00  0.96  0.04  0.00  0.00  0.89  0.00
  8100b                   1.00   0.00  0.00  0.00  0.96  0.04  0.00  0.00  0.88  0.00
  8100c                   1.00   0.00  0.00  0.00  0.95  0.05  0.00  0.00  0.89  0.00
  8100d                   1.00   0.00  0.00  0.00  0.96  0.04  0.00  0.00  0.89  0.00
  8100e                   1.00   0.00  0.00  0.00  0.96  0.04  0.00  0.00  0.03  0.00
  8130                    1.00   0.00  0.00  0.00  0.96  0.04  0.00  0.00  0.45  0.00
  8130a                   1.00   0.00  0.00  0.00  0.96  0.04  0.00  0.00  0.45  0.00
  8130b                   1.00   0.00  0.00  0.00  1.00  0.00  0.00  0.00  0.85  0.00
  8130c                   1.00   0.00  0.00  0.00  0.94  0.06  0.00  0.00  0.04  0.00
  8130d                   1.00   0.00  0.00  0.00  0.96  0.04  0.00  0.00  0.45  0.00
  8130e                   1.00   0.00  0.08  0.00  0.92  0.00  0.00  0.00  0.00  0.00
  
  
  *************************
  Conduit Surcharge Summary
  *************************
  
  ----------------------------------------------------------------------------
                                                           Hours        Hours 
                         --------- Hours Full --------   Above Full   Capacity
  Conduit                Both Ends  Upstream  Dnstream   Normal Flow   Limited
  ----------------------------------------------------------------------------
  1570                        0.01      0.01      3.66      0.01         0.01
  1600                        1.83      1.83      2.94      0.01         0.01
  1602                        0.01      0.01      3.24      0.38         0.01
  1602a                       0.01      3.20      0.01      3.14         0.01
  1602b                       0.01      2.86      0.01      2.74         0.01
  1602d                       0.01      3.71      0.01      3.56         0.01
  1602e                       0.01      2.93      0.01      2.82         0.01
  8040                        0.01      5.90      0.01      5.90         0.01
  8040a                       2.70      2.70      2.81      0.01         0.01
  8040b                       2.25      2.25      2.44      0.01         0.01
  8040d                       2.19      2.19      2.94      0.01         0.01
  8040e                       2.34      2.34      2.52      0.01         0.01
  8060a                       2.81      2.81      2.95      0.06         0.01
  8060b                       2.44      2.44      2.61      0.01         0.01
  8060d                       2.94      2.94      3.51      0.01         0.01
  8060e                       2.52      2.52      2.69      0.01         0.01
  8100e                       2.16      2.16      5.35      0.01         0.01
  8130e                       0.01      0.01      5.35      0.01         0.01
  
  
  ***************
  Pumping Summary
  ***************
  
  ---------------------------------------------------------------------------------------------------------
                                                  Min       Avg       Max     Total     Power    % Time Off
                        Percent   Number of      Flow      Flow      Flow    Volume     Usage    Pump Curve
  Pump                 Utilized   Start-Ups       CFS       CFS       CFS  10^6 gal     Kw-hr    Low   High
  ---------------------------------------------------------------------------------------------------------
  Pump1                   55.81           1      0.00     12.81     15.00     1.156     32.36    0.0   76.9
  

  Analysis begun on:  Fri Mar  6 15:35:09 2026
  Analysis ended on:  Fri Mar  6 15:35:10 2026
  Total elapsed time: 00:00:01