
  EPA STORM WATER MANAGEMENT MODEL - VERSION 5.2 (Build 5.2.4)
  ------------------------------------------------------------

  
  ERROR 209: undefined object 1 at line 66 of [SUBCATCHMENT] section:
  S1008755	1	1008755	7.504147	82.300000	322.566794	0.000000	0.000000

  
  ERROR 209: undefined object 1 at line 67 of [SUBCATCHMENT] section:
  S100_BINNEY	1	ALSD-6	0.958001	92.960000	115.252960	0.000000	0.000000

  
  ERROR 209: undefined object 1 at line 68 of [SUBCATCHMENT] section:
  S10400	1	CT10725	14.150022	60.000000	300.000000	1.000000	0.000000

  
  ERROR 209: undefined object 1 at line 69 of [SUBCATCHMENT] section:
  S10401	1	CT10661	15.380024	75.000000	4380.000000	0.500000	0.000000

  
  ERROR 209: undefined object 1 at line 70 of [SUBCATCHMENT] section:
  S10402	1	CT10687	19.440030	65.000000	2000.000000	0.500000	0.000000

  
  ERROR 209: undefined object 1 at line 71 of [SUBCATCHMENT] section:
  S10403	1	CT10711	20.940032	70.000000	1620.000000	1.000000	0.000000

  
  ERROR 209: undefined object 1 at line 72 of [SUBCATCHMENT] section:
  S10404	1	CT10651	4.240007	75.000000	1360.000000	1.000000	0.000000

  
  ERROR 209: undefined object 1 at line 73 of [SUBCATCHMENT] section:
  S10406	1	CT10635	9.640015	75.000000	4800.000000	1.000000	0.000000

  
  ERROR 209: undefined object 1 at line 74 of [SUBCATCHMENT] section:
  S10407	1	CT106331	86.400133	100.000000	6000.000000	1.000000	0.000000

  
  ERROR 209: undefined object 1 at line 75 of [SUBCATCHMENT] section:
  S10408	1	CT106331	130.000201	100.000000	8000.000000	1.000000	0.000000

  
  ERROR 209: undefined object 1 at line 76 of [SUBCATCHMENT] section:
  S10409	1	1005727	6.040009	50.000000	700.000000	0.500000	0.000000

  
  ERROR 209: undefined object 1 at line 77 of [SUBCATCHMENT] section:
  S10411	1	CT10689	10.850017	65.000000	1100.000000	0.500000	0.000000

  
  ERROR 209: undefined object 1 at line 78 of [SUBCATCHMENT] section:
  S125_BINNEY!	1	ALSD-6	1.650168	99.940006	151.255546	0.000000	0.000000

  
  ERROR 209: undefined object 1 at line 79 of [SUBCATCHMENT] section:
  S125_BINNEY-EAST	1	D07DMH1225	2.209463	60.000000	175.029968	0.107583	0.000000

  
  ERROR 209: undefined object 1 at line 80 of [SUBCATCHMENT] section:
  S125_BINNEY_W	1	934093	4.108755	71.000000	238.684437	0.371326	0.000000

  
  ERROR 209: undefined object 1 at line 81 of [SUBCATCHMENT] section:
  S161_FIRST	1	ALSD_5	0.625001	94.630000	93.091353	0.181062	0.000000

  
  ERROR 209: undefined object 1 at line 82 of [SUBCATCHMENT] section:
  S225_BINNEY	1	935022	2.349566	82.800000	180.494010	0.015354	0.000000

  
  ERROR 209: undefined object 1 at line 83 of [SUBCATCHMENT] section:
  S300_BINNEY_ST	1	935021	2.024646	86.000000	167.549646	0.027293	0.000000

  
  ERROR 209: undefined object 1 at line 84 of [SUBCATCHMENT] section:
  S303_THIRD_ST	1	INTOWN2	2.173523	72.277228	172.739027	0.115091	0.000000

  
  ERROR 209: undefined object 1 at line 85 of [SUBCATCHMENT] section:
  S50_BINNEY	1	ALSD_5	1.015002	95.470000	118.632137	0.181062	0.000000

  
  ERROR 209: undefined object 3 at line 86 of [SUBCATCHMENT] section:
  S6001	3	SM6005	44.850069	40.000000	1272.800000	0.100000	0.000000

  
  ERROR 209: undefined object 3 at line 87 of [SUBCATCHMENT] section:
  S6002	3	SM6007	41.210064	40.000000	1414.200000	0.100000	0.000000

  
  ERROR 209: undefined object 3 at line 88 of [SUBCATCHMENT] section:
  S6003	3	SM6009	31.740049	40.000000	1555.600000	0.100000	0.000000

  
  ERROR 209: undefined object 3 at line 89 of [SUBCATCHMENT] section:
  S6004	3	SM6013	20.950032	40.000000	2121.300000	0.100000	0.000000

  
  ERROR 209: undefined object 3 at line 90 of [SUBCATCHMENT] section:
  S6005	3	SM6003	10.810017	40.000000	848.500000	0.100000	0.000000

  
  ERROR 209: undefined object 3 at line 91 of [SUBCATCHMENT] section:
  S6006	3	SM6123	24.080037	20.000000	1979.900000	0.100000	0.000000

  
  ERROR 209: undefined object 3 at line 92 of [SUBCATCHMENT] section:
  S6007	3	SM6015	23.110036	40.000000	1272.800000	0.100000	0.000000

  
  ERROR 209: undefined object 3 at line 93 of [SUBCATCHMENT] section:
  S6008	3	SM6019	10.500016	20.000000	636.396000	0.100000	0.000000

  
  ERROR 209: undefined object 3 at line 94 of [SUBCATCHMENT] section:
  S6009	3	SM6019	23.550036	20.000000	1237.437000	0.100000	0.000000

  
  ERROR 209: undefined object 3 at line 95 of [SUBCATCHMENT] section:
  S6010	3	SM6193	10.400016	20.000000	707.107000	0.100000	0.000000

  
  ERROR 209: undefined object 3 at line 96 of [SUBCATCHMENT] section:
  S6011	3	SM6123	6.360010	20.000000	388.900000	0.100000	0.000000

  
  ERROR 209: undefined object 3 at line 97 of [SUBCATCHMENT] section:
  S6012	3	SM6119	8.940014	20.000000	1131.400000	0.100000	0.000000

  
  ERROR 209: undefined object 3 at line 98 of [SUBCATCHMENT] section:
  S6013	3	SM6117	15.250024	20.000000	1555.600000	0.100000	0.000000

  
  ERROR 209: undefined object 3 at line 99 of [SUBCATCHMENT] section:
  S6014	3	SM6023	36.219956	13.307326	2757.716000	0.100000	0.000000

  
  ERROR 209: undefined object 3 at line 100 of [SUBCATCHMENT] section:
  S6015	3	SM6063	15.440024	20.000000	989.949000	0.100000	0.000000

  
  ERROR 209: undefined object 3 at line 101 of [SUBCATCHMENT] section:
  S6016	3	SM6029	6.930239	13.307326	424.264000	0.100000	0.000000

  
  ERROR 209: undefined object 3 at line 102 of [SUBCATCHMENT] section:
  S6017	3	SM6023	43.371667	13.307326	2474.874000	0.100000	0.000000

  
  ERROR 209: undefined object 3 at line 103 of [SUBCATCHMENT] section:
  S6018	3	SM6031	4.530955	13.307326	1484.924000	0.100000	0.000000

  
  ERROR 209: undefined object 3 at line 104 of [SUBCATCHMENT] section:
  S6019	3	SM6065	11.914618	2.439024	1131.371000	0.100000	0.000000

  
  ERROR 209: undefined object 3 at line 105 of [SUBCATCHMENT] section:
  S6020	3	SM6113	20.940032	20.000000	1442.500000	0.100000	0.000000

  
  ERROR 209: undefined object 3 at line 106 of [SUBCATCHMENT] section:
  S6021	3	SM6113	29.590046	20.000000	1202.100000	0.100000	0.000000

  
  ERROR 209: undefined object 3 at line 107 of [SUBCATCHMENT] section:
  S6022	3	SM6033	7.963776	13.307326	1343.503000	0.100000	0.000000

  
  ERROR 209: undefined object 3 at line 108 of [SUBCATCHMENT] section:
  S6023	3	SM6067	70.539025	16.562370	2333.452000	0.100000	0.000000

  
  ERROR 209: undefined object 1 at line 109 of [SUBCATCHMENT] section:
  S6024	1	SM6035	21.140033	20.000000	1131.371000	0.100000	0.000000

  
  ERROR 209: undefined object 1 at line 110 of [SUBCATCHMENT] section:
  S6026	1	SM6071	17.020026	20.000000	1414.214000	0.100000	0.000000

  
  ERROR 209: undefined object 1 at line 111 of [SUBCATCHMENT] section:
  S6027	1	SM6205	12.440019	20.000000	989.949000	0.100000	0.000000

  
  ERROR 209: undefined object 1 at line 112 of [SUBCATCHMENT] section:
  S6028	1	SM6037	8.920014	20.000000	530.330000	0.100000	0.000000

  
  ERROR 209: undefined object 1 at line 113 of [SUBCATCHMENT] section:
  S6029	1	SM6211	7.010011	20.000000	989.949000	0.100000	0.000000

  
  ERROR 209: undefined object 1 at line 114 of [SUBCATCHMENT] section:
  S6030	1	SM6041	40.000062	20.000000	1767.767000	0.100000	0.000000

  
  ERROR 209: undefined object 1 at line 115 of [SUBCATCHMENT] section:
  S6031	1	SM6075	30.048046	0.000000	848.528000	0.100000	0.000000

  
  ERROR 209: undefined object 3 at line 116 of [SUBCATCHMENT] section:
  S6037	3	1001555	73.120113	2.000000	3500.000000	0.300000	0.000000

  
  ERROR 209: undefined object 1 at line 117 of [SUBCATCHMENT] section:
  S6038	1	SM6321	3.795006	40.000000	742.462500	2.000000	0.000000

  
  ERROR 209: undefined object 1 at line 118 of [SUBCATCHMENT] section:
  S6039	1	SM6325	14.120022	5.000000	1456.692913	0.100000	0.000000

  
  ERROR 209: undefined object 1 at line 119 of [SUBCATCHMENT] section:
  S6041	1	SM6223	27.970043	20.000000	1555.635000	0.100000	0.000000

  
  ERROR 209: undefined object 1 at line 120 of [SUBCATCHMENT] section:
  S6042	1	SM6045	114.470177	20.000000	5374.012000	0.100000	0.000000

  
  ERROR 209: undefined object 1 at line 121 of [SUBCATCHMENT] section:
  S6043	1	SM6045	17.140026	20.000000	1697.056000	0.100000	0.000000

  
  ERROR 209: undefined object 1 at line 122 of [SUBCATCHMENT] section:
  S6044	1	SM6039	14.920023	20.000000	1590.990000	0.100000	0.000000

  
  ERROR 209: undefined object 1 at line 123 of [SUBCATCHMENT] section:
  S6045	1	SM6047	101.630157	20.000000	4666.905000	0.100000	0.000000

  
  ERROR 209: undefined object 1 at line 124 of [SUBCATCHMENT] section:
  S6046	1	SM6223	8.610013	20.000000	473.762000	0.100000	0.000000

  
  ERROR 209: undefined object 1 at line 125 of [SUBCATCHMENT] section:
  S6047	1	SM6227	11.570018	20.000000	1767.767000	0.100000	0.000000

  
  ERROR 209: undefined object 1 at line 126 of [SUBCATCHMENT] section:
  S6050	1	1001075	20.116831	100.000000	142.102000	0.300000	0.000000

  
  ERROR 209: undefined object 1 at line 127 of [SUBCATCHMENT] section:
  S6051	1	SM6273	7.210011	95.000000	77.140000	0.200000	0.000000

  
  ERROR 209: undefined object 1 at line 128 of [SUBCATCHMENT] section:
  S6052	1	SM6227	4.990008	20.000000	1060.660000	0.100000	0.000000

  
  ERROR 209: undefined object 1 at line 129 of [SUBCATCHMENT] section:
  S6053	1	SM6263	11.070017	20.000000	989.949000	0.100000	0.000000

  
  ERROR 209: undefined object 1 at line 130 of [SUBCATCHMENT] section:
  S6054	1	SM6263	5.030008	20.000000	735.391000	0.100000	0.000000

  
  ERROR 209: undefined object 1 at line 131 of [SUBCATCHMENT] section:
  S6055	1	SM6267	8.250013	20.000000	749.533000	0.100000	0.000000

  
  ERROR 209: undefined object 1 at line 132 of [SUBCATCHMENT] section:
  S6056	1	SM6049	8.680013	20.000000	579.828000	0.100000	0.000000

  
  ERROR 209: undefined object 1 at line 133 of [SUBCATCHMENT] section:
  S6057	1	SM6243	10.840017	20.000000	919.239000	0.100000	0.000000

  
  ERROR 209: undefined object 1 at line 134 of [SUBCATCHMENT] section:
  S6058	1	SM6243	2.510004	20.000000	141.421000	0.100000	0.000000

  
  ERROR 209: undefined object 1 at line 135 of [SUBCATCHMENT] section:
  S6060	1	SM6051	12.960020	40.000000	1202.082000	0.100000	0.000000

  
  ERROR 209: undefined object 1 at line 136 of [SUBCATCHMENT] section:
  S6061	1	SM6051	7.230011	40.000000	565.685000	0.100000	0.000000

  
  ERROR 209: undefined object 1 at line 137 of [SUBCATCHMENT] section:
  S6062	1	SM6273	11.700018	95.000000	125.178000	0.200000	0.000000

  
  ERROR 209: undefined object 1 at line 138 of [SUBCATCHMENT] section:
  S6063	1	1001075	9.813615	100.000000	69.322000	0.300000	0.000000

  
  ERROR 209: undefined object 1 at line 139 of [SUBCATCHMENT] section:
  S6064	1	1001583	21.920034	2.000000	2200.000000	0.300000	0.000000

  
  ERROR 209: undefined object 3 at line 140 of [SUBCATCHMENT] section:
  S6065	3	SM6025	8.554369	13.307326	905.097000	0.100000	0.000000

  
  ERROR 209: undefined object 3 at line 141 of [SUBCATCHMENT] section:
  S6104	3	SM6601	31.170048	40.000000	1979.899000	0.100000	0.000000

  
  ERROR 209: undefined object 3 at line 142 of [SUBCATCHMENT] section:
  S6106	3	SM6147	17.440027	40.000000	1131.400000	0.100000	0.000000

  
  ERROR 209: undefined object 3 at line 143 of [SUBCATCHMENT] section:
  S6107	3	SM6145	8.150013	40.000000	1131.400000	0.100000	0.000000

  
  ERROR 209: undefined object 3 at line 144 of [SUBCATCHMENT] section:
  S6108	3	SM6145	22.870035	40.000000	3535.500000	0.100000	0.000000

  
  ERROR 209: undefined object 3 at line 145 of [SUBCATCHMENT] section:
  S6109	3	SM6175	5.290008	40.000000	919.200000	0.100000	0.000000

  
  ERROR 209: undefined object 1 at line 146 of [SUBCATCHMENT] section:
  S610_MAINST	1	935040	3.523594	61.200000	221.035458	0.470344	0.000000

  
  ERROR 209: undefined object 3 at line 147 of [SUBCATCHMENT] section:
  S6110	3	SM6143	17.450027	40.000000	2404.200000	0.100000	0.000000

  
  ERROR 209: undefined object 3 at line 148 of [SUBCATCHMENT] section:
  S6111	3	SM6137	19.090029	40.000000	1909.200000	0.100000	0.000000

  
  ERROR 209: undefined object 3 at line 149 of [SUBCATCHMENT] section:
  S6112	3	SM6133	10.570016	40.000000	1838.500000	0.100000	0.000000

  
  ERROR 209: undefined object 3 at line 150 of [SUBCATCHMENT] section:
  S6113	3	SM6133	28.900045	40.000000	1555.600000	0.100000	0.000000

  
  ERROR 209: undefined object 1 at line 151 of [SUBCATCHMENT] section:
  S6115	1	1001075	5.461208	100.000000	38.577000	0.300000	0.000000

  
  ERROR 209: undefined object 1 at line 152 of [SUBCATCHMENT] section:
  S6118	1	SM6381	4.642007	40.000000	1909.448819	2.000000	0.000000

  
  ERROR 209: undefined object 1 at line 153 of [SUBCATCHMENT] section:
  S6119	1	SM6391	1.639003	40.000000	2185.039370	2.000000	0.000000

  
  ERROR 209: undefined object 1 at line 154 of [SUBCATCHMENT] section:
  S6120	1	SM6393	3.767506	40.000000	2928.149606	2.000000	0.000000

  
  ERROR 209: undefined object 1 at line 155 of [SUBCATCHMENT] section:
  S6121	1	SM_WEIR2	31.790049	30.000000	890.955000	0.100000	0.000000

  
  ERROR 209: undefined object 1 at line 156 of [SUBCATCHMENT] section:
  S6122	1	SM_WEIR2	10.410016	30.000000	1909.188000	0.100000	0.000000

  
  ERROR 209: undefined object 1 at line 157 of [SUBCATCHMENT] section:
  S6123	1	SM6383	26.394541	40.000000	1962.222000	2.000000	0.000000

  
  ERROR 209: undefined object 3 at line 158 of [SUBCATCHMENT] section:
  S6124	3	SM6315E	47.490073	45.000000	1385.929000	0.100000	0.000000

  
  ERROR 209: undefined object 1 at line 159 of [SUBCATCHMENT] section:
  S6125	1	1001583	70.920109	2.000000	2276.884000	0.100000	0.000000

  
  ERROR 209: undefined object 1 at line 160 of [SUBCATCHMENT] section:
  S6126	1	SM6041	11.910018	20.000000	848.528000	0.100000	0.000000

  
  ERROR 209: undefined object 1 at line 161 of [SUBCATCHMENT] section:
  S6127	1	SM6049	24.930038	20.000000	1767.767000	0.100000	0.000000

  
  ERROR 209: undefined object 1 at line 162 of [SUBCATCHMENT] section:
  S6128	1	SM6273	9.130014	95.000000	97.682000	0.200000	0.000000

  
  ERROR 209: undefined object 3 at line 163 of [SUBCATCHMENT] section:
  S6140	3	SM6629	7.630012	10.000000	7.630000	0.200000	0.000000

  
  ERROR 209: undefined object 3 at line 164 of [SUBCATCHMENT] section:
  S6613	3	SM6613	31.170048	7.000000	84.853000	0.100000	0.000000

  
  ERROR 209: undefined object 3 at line 165 of [SUBCATCHMENT] section:
  S6617	3	SM6617	6.500010	7.000000	42.426000	0.100000	0.000000

  
  Maximum error count exceeded.

  Analysis begun on:  Fri Mar  6 15:35:10 2026
  Analysis ended on:  Fri Mar  6 15:35:10 2026
  Total elapsed time: < 1 sec