
  EPA STORM WATER MANAGEMENT MODEL - VERSION 5.2 (Build 5.2.4)
  ------------------------------------------------------------

  Scenario Run :  BASE 
   SW 1 0 20 
  
  *************
  Element Count
  *************
  Number of rain gages ...... 0
  Number of subcatchments ... 0
  Number of nodes ........... 10
  Number of links ........... 9
  Number of pollutants ...... 0
  Number of land uses ....... 0
  
  
  ************
  Node Summary
  ************
                                           Invert      Max.    Ponded    External
  Name                 Type                 Elev.     Depth      Area    Inflow  
  -------------------------------------------------------------------------------
  10309                JUNCTION            101.60      9.40       0.0
  15009                JUNCTION            111.50     13.50       0.0
  16009                JUNCTION            102.00     18.00       0.0
  16109                JUNCTION            102.80     22.20       0.0
  80408                JUNCTION            124.60     13.40       0.0    Yes
  80608                JUNCTION            118.30     16.70       0.0
  81009                JUNCTION            128.20      8.80       0.0    Yes
  81309                JUNCTION            117.50     12.50       0.0
  82309                JUNCTION            112.30     42.70       0.0    Yes
  10208                OUTFALL            -100.00      9.00       0.0
  
  
  ************
  Link Summary
  ************
  Name             From Node        To Node          Type            Length    %Slope Roughness
  ---------------------------------------------------------------------------------------------
  1030             10309            10208            CONDUIT         4500.0    4.4845    0.0160
  1570             15009            16009            CONDUIT         5000.0    0.1900    0.0154
  1600             16009            16109            CONDUIT          500.0   -0.1600    0.0150
  1602             82309            16109            CONDUIT         5000.0    0.1900    0.0340
  1630             16009            10309            CONDUIT          300.0    0.1333    0.0150
  8040             80408            80608            CONDUIT         1800.0    0.3500    0.0150
  8060             80608            82309            CONDUIT         2075.0    0.1831    0.0150
  8100             81009            81309            CONDUIT         5100.0    0.2098    0.0150
  8130             81309            15009            CONDUIT         3500.0    0.1714    0.0150
  
  
  *********************
  Cross Section Summary
  *********************
                                        Full     Full     Hyd.     Max.   No. of     Full
  Conduit          Shape               Depth     Area     Rad.    Width  Barrels     Flow
  ---------------------------------------------------------------------------------------
  1030             TRIANGULAR           9.00   243.00     4.27    54.00        1 12577.22
  1570             CIRCULAR             5.50    23.76     1.38     5.50        1   123.56
  1600             CIRCULAR             6.00    28.27     1.50     6.00        1   146.82
  1602             CIRCULAR             5.00    19.63     1.25     5.00        1    43.41
  1630             TRIANGULAR           9.00   243.00     4.27    54.00        1  2313.27
  8040             CIRCULAR             4.00    12.57     1.00     4.00        1    73.65
  8060             CIRCULAR             4.00    12.57     1.00     4.00        1    53.27
  8100             CIRCULAR             4.50    15.90     1.12     4.50        1    78.06
  8130             CIRCULAR             4.50    15.90     1.12     4.50        1    70.56
  
  
  ****************
  Analysis Options
  ****************
  Flow Units ............... CFS
  Process Models:
    Rainfall/Runoff ........ NO
    RDII ................... NO
    Snowmelt ............... NO
    Groundwater ............ NO
    Flow Routing ........... YES
    Ponding Allowed ........ NO
    Water Quality .......... NO
  Flow Routing Method ...... DYNWAVE
  Surcharge Method ......... EXTRAN
  Starting Date ............ 02/22/2002 00:00:00
  Ending Date .............. 02/24/2002 00:00:00
  Antecedent Dry Days ...... 0.0
  Report Time Step ......... 00:01:40
  Routing Time Step ........ 30.00 sec
  Variable Time Step ....... YES
  Maximum Trials ........... 4
  Number of Threads ........ 1
  Head Tolerance ........... 0.005000 ft
  
  
  **************************        Volume        Volume
  Flow Routing Continuity        acre-feet      10^6 gal
  **************************     ---------     ---------
  Dry Weather Inflow .......       509.061       165.885
  Wet Weather Inflow .......         0.000         0.000
  Groundwater Inflow .......         0.000         0.000
  RDII Inflow ..............         0.000         0.000
  External Inflow ..........         0.000         0.000
  External Outflow .........       433.634       141.306
  Flooding Loss ............        68.674        22.378
  Evaporation Loss .........         0.055         0.018
  Exfiltration Loss ........         0.000         0.000
  Initial Stored Volume ....         6.276         2.045
  Final Stored Volume ......        18.047         5.881
  Continuity Error (%) .....        -0.985
  
  
  ***************************
  Time-Step Critical Elements
  ***************************
  Link 1630 (99.04%)
  
  
  ********************************
  Highest Flow Instability Indexes
  ********************************
  Link 8060 (6)
  Link 1602 (4)
  Link 8040 (3)
  Link 1600 (1)
  
  
  *********************************
  Most Frequent Nonconverging Nodes
  *********************************
  Node 10208 (13.87%)
  Node 82309 (10.39%)
  Node 80608 (5.18%)
  Node 80408 (1.43%)
  Node 81009 (0.02%)
  
  
  *************************
  Routing Time Step Summary
  *************************
  Minimum Time Step           :     8.84 sec
  Average Time Step           :    18.77 sec
  Maximum Time Step           :    30.00 sec
  % of Time in Steady State   :     0.00
  Average Iterations per Step :     2.32
  % of Steps Not Converging   :    13.87
  Time Step Frequencies       :
     30.000 - 13.228 sec      :    99.98 %
     13.228 -  5.833 sec      :     0.02 %
      5.833 -  2.572 sec      :     0.00 %
      2.572 -  1.134 sec      :     0.00 %
      1.134 -  0.500 sec      :     0.00 %
  
  
  ******************
  Node Depth Summary
  ******************
  
  ---------------------------------------------------------------------------------
                                 Average  Maximum  Maximum  Time of Max    Reported
                                   Depth    Depth      HGL   Occurrence   Max Depth
  Node                 Type         Feet     Feet     Feet  days hr:min        Feet
  ---------------------------------------------------------------------------------
  10309                JUNCTION     1.51     1.71   103.31     1  11:06        1.71
  15009                JUNCTION     2.31     3.09   114.59     1  11:02        3.09
  16009                JUNCTION     2.93     3.32   105.32     1  11:00        3.32
  16109                JUNCTION     2.83     3.13   105.93     1  11:00        3.13
  80408                JUNCTION     9.06    13.40   138.00     0  06:00       13.40
  80608                JUNCTION    12.48    16.70   135.00     0  03:01       16.70
  81009                JUNCTION     2.51     3.54   131.74     1  11:00        3.54
  81309                JUNCTION     2.88     4.23   121.73     1  11:00        4.23
  82309                JUNCTION    17.67    24.16   136.46     0  10:00       22.82
  10208                OUTFALL    100.00   100.00     0.00     0  00:00      100.00
  
  
  *******************
  Node Inflow Summary
  *******************
  
  -------------------------------------------------------------------------------------------------
                                  Maximum  Maximum                  Lateral       Total        Flow
                                  Lateral    Total  Time of Max      Inflow      Inflow     Balance
                                   Inflow   Inflow   Occurrence      Volume      Volume       Error
  Node                 Type           CFS      CFS  days hr:min    10^6 gal    10^6 gal     Percent
  -------------------------------------------------------------------------------------------------
  10309                JUNCTION      0.00   149.81     1  11:00           0         142       0.277
  15009                JUNCTION      0.00    74.98     1  11:00           0        58.9       0.374
  16009                JUNCTION      0.00   149.85     1  11:00           0         142       0.168
  16109                JUNCTION      0.00    76.09     0  10:00           0        83.5       0.000
  80408                JUNCTION     60.00    60.00     0  10:00        47.4        47.4       0.061
  80608                JUNCTION      0.00    50.94     1  10:03           0        46.2       0.443
  81009                JUNCTION     75.00    75.00     0  10:00        59.2        59.2       0.194
  81309                JUNCTION      0.00    75.00     1  11:00           0        59.1       0.420
  82309                JUNCTION     75.00    76.29     0  10:00        59.2          84       0.629
  10208                OUTFALL       0.00   149.75     1  11:06           0         141       0.000
  
  
  **********************
  Node Surcharge Summary
  **********************
  
  Surcharging occurs when water rises above the top of the highest conduit.
  ---------------------------------------------------------------------
                                               Max. Height   Min. Depth
                                   Hours       Above Crown    Below Rim
  Node                 Type      Surcharged           Feet         Feet
  ---------------------------------------------------------------------
  80408                JUNCTION       32.99          9.400        0.000
  80608                JUNCTION       36.06         12.700        0.000
  82309                JUNCTION       42.10         17.956       18.544
  
  
  *********************
  Node Flooding Summary
  *********************
  
  Flooding refers to all water that overflows a node, whether it ponds or not.
  --------------------------------------------------------------------------
                                                             Total   Maximum
                                 Maximum   Time of Max       Flood    Ponded
                        Hours       Rate    Occurrence      Volume     Depth
  Node                 Flooded       CFS   days hr:min    10^6 gal      Feet
  --------------------------------------------------------------------------
  80408                  10.03      9.18      0  10:23       1.181     0.000
  80608                  27.38     50.93      1  10:07      21.196     0.000
  
  
  ***********************
  Outfall Loading Summary
  ***********************
  
  -----------------------------------------------------------
                         Flow       Avg       Max       Total
                         Freq      Flow      Flow      Volume
  Outfall Node           Pcnt       CFS       CFS    10^6 gal
  -----------------------------------------------------------
  10208                 99.29    112.31    149.75     141.296
  -----------------------------------------------------------
  System                99.29    112.31    149.75     141.296
  
  
  ********************
  Link Flow Summary
  ********************
  
  -----------------------------------------------------------------------------
                                 Maximum  Time of Max   Maximum    Max/    Max/
                                  |Flow|   Occurrence   |Veloc|    Full    Full
  Link                 Type          CFS  days hr:min    ft/sec    Flow   Depth
  -----------------------------------------------------------------------------
  1030                 CONDUIT    149.75     1  11:06      1.74    0.01    0.59
  1570                 CONDUIT     74.87     1  11:03      5.21    0.61    0.58
  1600                 CONDUIT     75.06     1  11:22      5.20    0.51    0.54
  1602                 CONDUIT     76.09     0  10:00      4.46    1.75    0.81
  1630                 CONDUIT    149.81     1  11:00      9.14    0.06    0.28
  8040                 CONDUIT     50.82     0  08:29      7.01    0.69    1.00
  8060                 CONDUIT     34.56     1  18:00      3.99    0.65    1.00
  8100                 CONDUIT     75.00     1  11:00      5.66    0.96    0.86
  8130                 CONDUIT     74.98     1  11:00      5.42    1.06    0.81
  
  
  ***************************
  Flow Classification Summary
  ***************************
  
  -------------------------------------------------------------------------------------
                      Adjusted    ---------- Fraction of Time in Flow Class ---------- 
                       /Actual         Up    Down  Sub   Sup   Up    Down  Norm  Inlet 
  Conduit               Length    Dry  Dry   Dry   Crit  Crit  Crit  Crit  Ltd   Ctrl  
  -------------------------------------------------------------------------------------
  1030                    1.00   0.00  0.01  0.00  0.99  0.00  0.00  0.00  0.99  0.00
  1570                    1.00   0.00  0.00  0.00  1.00  0.00  0.00  0.00  0.99  0.00
  1600                    1.00   0.00  0.00  0.00  1.00  0.00  0.00  0.00  0.01  0.00
  1602                    1.00   0.00  0.00  0.00  1.00  0.00  0.00  0.00  0.00  0.00
  1630                    1.00   0.00  0.00  0.00  0.01  0.99  0.00  0.00  0.00  0.00
  8040                    1.00   0.00  0.00  0.00  1.00  0.00  0.00  0.00  0.27  0.00
  8060                    1.00   0.00  0.00  0.00  0.99  0.00  0.00  0.01  0.12  0.00
  8100                    1.00   0.00  0.00  0.00  0.99  0.01  0.00  0.00  0.99  0.00
  8130                    1.00   0.00  0.00  0.00  1.00  0.00  0.00  0.00  0.00  0.00
  
  
  *************************
  Conduit Surcharge Summary
  *************************
  
  ----------------------------------------------------------------------------
                                                           Hours        Hours 
                         --------- Hours Full --------   Above Full   Capacity
  Conduit                Both Ends  Upstream  Dnstream   Normal Flow   Limited
  ----------------------------------------------------------------------------
  1030                        0.01      0.01     47.63      0.01         0.01
  1602                        0.01     45.43      0.01     43.83         0.01
  8040                       32.99     32.99     36.04      0.01         0.01
  8060                       36.05     36.05     42.10      0.01         0.01
  8130                        0.01      0.01      0.01      2.95         0.01
  

  Analysis begun on:  Fri Mar  6 15:35:10 2026
  Analysis ended on:  Fri Mar  6 15:35:10 2026
  Total elapsed time: < 1 sec