
  EPA STORM WATER MANAGEMENT MODEL - VERSION 5.2 (Build 5.2.4)
  ------------------------------------------------------------

  WARNING 03: negative offset ignored for Link 391
  WARNING 03: negative offset ignored for Link 908
  WARNING 03: negative offset ignored for Link 4312
  WARNING 03: negative offset ignored for Link 10296
  WARNING 03: negative offset ignored for Link 10296
  WARNING 03: negative offset ignored for Link 11161
  WARNING 03: negative offset ignored for Link DOM10324
  WARNING 02: maximum depth increased for Node R014878
  
  *************
  Element Count
  *************
  Number of rain gages ...... 3
  Number of subcatchments ... 37
  Number of nodes ........... 90
  Number of links ........... 96
  Number of pollutants ...... 0
  Number of land uses ....... 0
  
  
  ****************
  Raingage Summary
  ****************
                                                      Data       Recording
  Name                 Data Source                    Type       Interval 
  ------------------------------------------------------------------------
  PLUIE_PROJET         SEA10A1H_F                     INTENSITY    5 min.
  U14B                 SEA2A1H_F                      INTENSITY    5 min.
  U433                 SEA2A1H_F                      INTENSITY    5 min.
  
  
  ********************
  Subcatchment Summary
  ********************
  Name                       Area     Width   %Imperv    %Slope Rain Gage            Outlet              
  -----------------------------------------------------------------------------------------------------------
  DUB-00                     0.39    124.20    100.00    2.0000 U433                 R009897             
  DUB-02                     0.24     98.70    100.00    2.0000 U433                 R009658             
  DUB-21                     0.00      2.00    100.00    2.0000 U433                 R006334             
  DUB-22                     0.18     85.70    100.00    2.0000 U433                 R006767             
  DUB-23                     0.15     77.30    100.00    2.0000 U433                 R006776             
  DUB-24                     0.71    168.50    100.00    2.0000 U433                 R006714             
  DUB-25                     0.59    153.30    100.00    2.0000 U433                 R006337             
  DUB-26                     0.22     94.00    100.00    2.0000 U433                 R006729             
  DUB-27                     0.05     42.80    100.00    2.0000 U433                 R006787             
  DUB-28                     0.00      2.00    100.00    2.0000 U433                 R006334             
  DUB-32                     0.81    180.10    100.00    2.0000 U433                 R009658             
  DUB-33                     0.64    159.90    100.00    2.0000 U433                 R009676             
  DUB-34                     0.00      2.00    100.00    2.0000 U433                 R006729             
  DUB-35                     0.14     75.00    100.00    2.0000 U433                 R006334             
  DUB-30                     0.18     84.80    100.00    2.0000 U433                 R006769             
  DUB-04                     0.33    115.60    100.00    2.0000 U433                 R014421             
  DUB-05                     0.47    137.30    100.00    2.0000 U433                 R014421             
  DUB-10                     1.07    207.00    100.00    2.0000 U433                 R017469             
  DUB-13                     2.35    306.30    100.00    2.0000 U433                 R014877             
  DUB-36                     0.95    195.10    100.00    2.0000 U433                 R014877             
  DUB-11                     0.28    106.50    100.00    2.0000 U433                 R017473             
  DUB-03                     0.04     40.80    100.00    2.0000 U433                 R014414             
  DUB-12                     0.40    126.80    100.00    2.0000 U433                 R009374             
  DUB-14                     1.08    207.90    100.00    2.0000 U14B                 R017731             
  DUB-16                     1.86    272.90    100.00    2.0000 U433                 R017731             
  DUB-29                     0.10     63.50    100.00    2.0000 U433                 RA_9142             
  DUB-37                     0.78    176.80    100.00    2.0000 U14B                 R017726             
  DUB-01                     0.20     89.10    100.00    2.0000 U433                 R009885             
  DUB-06                     0.06     50.20    100.00    2.0000 U433                 R009384             
  DUB-08                     0.15     77.00    100.00    2.0000 U14B                 R009418             
  DUB-09                     0.42    130.40    100.00    2.0000 U433                 R009379             
  DUB-15                     1.43    238.80    100.00    2.0000 U14B                 R014118             
  DUB-17                     0.30    108.80    100.00    2.0000 U14B                 R009404             
  DUB-18                     0.67    163.30    100.00    2.0000 U14B                 R014118             
  DUB-19                     0.18     85.50    100.00    2.0000 U14B                 R009411             
  DUB-20                     0.01     22.20    100.00    2.0000 U14B                 R009411             
  DUB-07                     0.69    165.50    100.00    2.0000 U14B                 R009873             
  
  
  ************
  Node Summary
  ************
                                           Invert      Max.    Ponded    External
  Name                 Type                 Elev.     Depth      Area    Inflow  
  -------------------------------------------------------------------------------
  R093130              JUNCTION              8.66      2.15       0.0
  RA_9142              JUNCTION              7.98      3.28       0.0
  R017733              JUNCTION             11.67      2.56       0.0
  R017735              JUNCTION             12.03      2.40       0.0
  R017731              JUNCTION             11.27      2.94       0.0
  R017726              JUNCTION             11.93      3.02       0.0
  R017473              JUNCTION              8.07      3.33       0.0
  R014882              JUNCTION             13.98      3.03       0.0
  R014864              JUNCTION              8.46      3.96      10.0
  R014878              JUNCTION             10.09      4.29       0.0
  R014418              JUNCTION             12.28      3.05       0.0
  R014169              JUNCTION             11.07      3.54       0.0
  R014616              JUNCTION              8.65      4.22       0.0
  R009892              JUNCTION              8.65      4.91       0.0
  R009893              JUNCTION              8.73      4.63       0.0
  R009894              JUNCTION              8.53      4.54       0.0
  R009885              JUNCTION              9.74      3.74       0.0
  R009878              JUNCTION              6.71      4.75       0.0
  R009887              JUNCTION             10.18      2.57       0.0
  R009873              JUNCTION              7.21      5.70       0.0    Yes
  R009392              JUNCTION              7.77      4.33       0.0
  R009411              JUNCTION             11.75      3.29       0.0
  R009374              JUNCTION             10.28      3.10       0.0
  R009417              JUNCTION             10.37      4.55       0.0
  R009418              JUNCTION             10.07      4.45       0.0
  R006790              JUNCTION              7.48      5.45       0.0
  R006782              JUNCTION              7.98      4.80       0.0
  R006794              JUNCTION              8.44      5.21       0.0
  R006785              JUNCTION              7.93      5.44       0.0
  R006746              JUNCTION              6.03      2.51       0.0
  R006739              JUNCTION              7.34      2.56       0.0
  R006337              JUNCTION              9.11      5.11       0.0
  R006334              JUNCTION             10.19      3.95       0.0
  R006747              JUNCTION              5.95      2.46       0.0
  R006775              JUNCTION             10.09      2.52       0.0
  R006714              JUNCTION              8.27      5.06       0.0
  R006737              JUNCTION              7.81      5.51       0.0
  R006741              JUNCTION              7.02      2.15       0.0
  R006742              JUNCTION              6.83      1.75       0.0
  R093762              JUNCTION              8.03      4.50       0.0
  R017469              JUNCTION             10.74      3.81       0.0
  R014869              JUNCTION              8.69      4.71       0.0
  R014877              JUNCTION              9.73      4.74       0.0
  R014875              JUNCTION              9.43      5.15       0.0
  R014868              JUNCTION              9.17      5.55       0.0
  R014617              JUNCTION             10.55      2.15       0.0
  R014411              JUNCTION              7.89      3.74       0.0    Yes
  R014423              JUNCTION              8.70      3.65       0.0
  R014414              JUNCTION              8.38      4.90       0.0
  R014422              JUNCTION              9.04      3.30       0.0
  R014421              JUNCTION              8.11      3.71       0.0
  R014173              JUNCTION             10.85      3.88       0.0
  R014328              JUNCTION             11.54      3.05       0.0
  R014118              JUNCTION             11.17      3.18       0.0
  R009897              JUNCTION              8.37      3.57       0.0
  R009879              JUNCTION              8.24      2.98       0.0
  R009898              JUNCTION              8.30      3.28       0.0
  R009676              JUNCTION              9.18      2.57       0.0
  R009658              JUNCTION              8.96      2.24       0.0
  R009404              JUNCTION             10.54      4.50       0.0
  R009414              JUNCTION             11.71      3.35       0.0
  R009380              JUNCTION              7.45      5.13       0.0
  R009386              JUNCTION              8.05      4.59       0.0
  R009379              JUNCTION              7.63      4.98       0.0
  R009384              JUNCTION              7.52      5.55       0.0
  R009188              JUNCTION              7.91      3.83       0.0    Yes
  R007011              JUNCTION              7.30      5.65       0.0
  R006744              JUNCTION              6.60      1.99       0.0
  R006767              JUNCTION              6.08      2.70       0.0    Yes
  R006769              JUNCTION              6.77      2.09       0.0
  R006768              JUNCTION              6.97      1.24       0.0
  R006787              JUNCTION              7.86      5.50       0.0
  R006776              JUNCTION              7.37      5.60       0.0
  R006729              JUNCTION              8.09      4.01       0.0
  R006801              JUNCTION             10.17      4.03       0.0
  JN_352327            JUNCTION              8.76      2.15       0.0
  Out_U435             JUNCTION              8.80      5.00       0.0
  OUT_U433             JUNCTION              5.80     14.20       0.0
  intMN-u433           JUNCTION             10.00     10.00       0.0
  R341121              JUNCTION              7.06      4.50       0.0
  R341121_2            JUNCTION              7.15      4.50       0.0
  SC_PP_u435           JUNCTION              8.85      2.74       0.0
  PP_U433a             JUNCTION              5.80     14.20       0.0
  1                    JUNCTION              0.00     23.94       0.0
  TPG_U435             OUTFALL               6.74      0.60       0.0
  OUT_U433_F           OUTFALL               5.70      0.72       0.0
  intMN-u433_F         OUTFALL               9.90      0.72       0.0
  TPP_U435             OUTFALL               8.47      0.45       0.0
  PP_U433              STORAGE               2.99      5.10       0.0
  PP_U435              STORAGE               5.26      5.00       0.0
  
  
  ************
  Link Summary
  ************
  Name             From Node        To Node          Type            Length    %Slope Roughness
  ---------------------------------------------------------------------------------------------
  10139+386        R006794          R006714          CONDUIT           77.7    0.2238    0.0130
  1024+9973        R009418          R009380          CONDUIT          165.7    1.3413    0.0130
  346              R006739          R006741          CONDUIT           74.0    0.4233    0.0110
  348              R006742          R006744          CONDUIT           24.0    0.2126    0.0110
  361              R006747          PP_U433          CONDUIT           20.4    0.1423    0.0130
  368              R006782          R006785          CONDUIT          111.4    0.0440    0.0130
  370              R006768          R006747          CONDUIT           33.7    2.2921    0.0130
  372              R006334          R006801          CONDUIT          123.9    0.0178    0.0130
  391              R006785          R006737          CONDUIT           55.6    0.1655    0.0130
  398              R006737          R006787          CONDUIT           68.6   -0.0729    0.0130
  400              R006729          R006782          CONDUIT           48.6    0.1462    0.0130
  868              R009188          R009392          CONDUIT           12.2    1.0231    0.0110
  890              R009379          R009380          CONDUIT            4.9    2.5755    0.0130
  908              R009384          R009873          CONDUIT           82.6    0.3741    0.0130
  912              R009374          R009188          CONDUIT           83.4    2.7956    0.0110
  941              R009417          R009418          CONDUIT          155.1    0.1953    0.0130
  953              R009411          R009414          CONDUIT           10.0    0.0697    0.0130
  1029             R009676          R009658          CONDUIT           98.0    0.2235    0.0130
  1031             R009893          R009894          CONDUIT           19.0    0.8107    0.0130
  1038             R009892          R009893          CONDUIT           55.8   -0.2063    0.0130
  1057             R009885          R009386          CONDUIT          124.3    0.5054    0.0130
  1058             R009879          R006729          CONDUIT           38.1    0.4695    0.0130
  1107             R341121_2        R009878          CONDUIT           15.6    1.6063    0.0130
  1267             R014418          R017469          CONDUIT          117.4    1.2198    0.0130
  1294             R017726          R017733          CONDUIT          161.0    0.1522    0.0130
  1320             R017733          R017731          CONDUIT          116.5    0.1544    0.0130
  1439             R014173          R009404          CONDUIT           93.4    0.3245    0.0130
  1441             R014118          R014169          CONDUIT           75.1    0.1118    0.0130
  1506             R017731          R009374          CONDUIT           98.0    1.0091    0.0130
  1645             R014882          R014418          CONDUIT          139.3    1.2204    0.0130
  1664             R014423          R014616          CONDUIT           77.7    0.5135    0.0130
  1712             R014868          R014869          CONDUIT           86.1    0.5031    0.0130
  1722             R014877          R014875          CONDUIT           62.2    0.4322    0.0130
  1724             R014869          R014421          CONDUIT           42.8    0.3040    0.0130
  395+10292        R006790          R007011          CONDUIT           51.1    0.3500    0.0130
  4141+892         R009380          R009384          CONDUIT           20.3   -0.4187    0.0130
  4312             PP_U433a         OUT_U433         CONDUIT           19.5    0.1282    0.0130
  5401             R017473          RA_9142          CONDUIT           78.5    0.1134    0.0130
  5423             RA_9142          R009188          CONDUIT           16.9    0.1122    0.0110
  6173             R006775          R006739          CONDUIT          100.9    2.7021    0.0110
  6178             R006741          R006742          CONDUIT           76.2    0.2295    0.0110
  6184             R006769          R006768          CONDUIT          120.0   -0.1700    0.0130
  6187             R006744          R006767          CONDUIT           76.7    0.3522    0.0130
  6199             R006776          R006767          CONDUIT           74.6    1.6014    0.0130
  6200             R006746          R006747          CONDUIT           12.3    0.0326    0.0130
  6204+4336        R006714          R006776          CONDUIT           70.7    0.3070    0.0130
  6223             R006801          R006337          CONDUIT          152.5    0.0623    0.0130
  6224+4325        R006787          R006790          CONDUIT          147.9    0.2103    0.0130
  6225             R006337          R006794          CONDUIT          116.8    0.5653    0.0130
  6337             R007011          R006776          CONDUIT           27.0   -0.2628    0.0130
  6704+9953        R009392          R009379          CONDUIT           66.9    0.2154    0.0130
  6732             R009386          R009380          CONDUIT            6.1    0.9401    0.0110
  6737             R009414          R014328          CONDUIT          120.0    0.1424    0.0130
  6738             R009404          R009417          CONDUIT           32.3    0.5321    0.0130
  6809             R093762          R009188          CONDUIT           74.9    0.1588    0.0110
  6862             R341121          PP_U435          CONDUIT            9.4    2.2334    0.0130
  6864             R009887          R009885          CONDUIT          161.9    0.2514    0.0130
  6867             R009898          R009879          CONDUIT           83.7    0.0693    0.0130
  6868             R009658          R009892          CONDUIT          129.0    0.2722    0.0130
  6870             R009894          R009897          CONDUIT           98.7    0.0365    0.0130
  6876             R009897          R009898          CONDUIT           99.4    0.0704    0.0130
  7123             R014411          R017473          CONDUIT           73.6   -0.2949    0.0130
  7159             R017735          R017726          CONDUIT           74.2    0.1334    0.0130
  7161             R017469          R014411          CONDUIT          207.0    1.2201    0.0130
  7234             R014328          R014118          CONDUIT          123.6    0.2629    0.0130
  7282+9325        R014169          R014173          CONDUIT          136.9    0.1490    0.0130
  7471             R014864          R014421          CONDUIT           67.1    0.5131    0.0130
  7474             R093130          R014414          CONDUIT           95.6    0.2971    0.0110
  7476             R014423          R014422          CONDUIT           68.9    0.5082    0.0110
  7492             R014616          R014864          CONDUIT           37.8    0.5139    0.0130
  7515             R014878          R014882          CONDUIT            8.3    1.2209    0.0130
  7523             R014878          R014877          CONDUIT           75.9    0.4320    0.0130
  7526             R014875          R014868          CONDUIT           76.7    0.3260    0.0130
  7622             R014421          R014411          CONDUIT          101.0    0.0327    0.0130
  8246             R014414          R093762          CONDUIT           62.6    0.5128    0.0110
  9996             R009878          TPG_U435         CONDUIT            9.5    1.6050    0.0130
  10296            R006767          R006746          CONDUIT            6.9    0.7266    0.0130
  11161            JN_352327        R014617          CONDUIT           16.4  -11.0170    0.0130
  11173            R014422          JN_352327        CONDUIT           66.3    0.4192    0.0130
  cond_fict_1      intMN-u433       intMN-u433_F     CONDUIT           10.0    1.0001    0.0130
  cond_fict_2      OUT_U433         OUT_U433_F       CONDUIT           10.0    1.0001    0.0130
  CTPP_U435        SC_PP_u435       TPP_U435         CONDUIT           23.5    1.6224    0.0130
  DOM10324         R009873          R341121          CONDUIT           15.2   -0.8579    0.0130
  fictive_conduit  Out_U435         1                CONDUIT           10.0    1.0001    0.0130
  Ref_U435         1                R009676          CONDUIT          538.7    2.7391    0.0130
  U435_Pplu        PP_U435          SC_PP_u435       TYPE2 PUMP  
  U433_Psan_1_ou_2 PP_U433          intMN-u433       TYPE2 PUMP  
  U433_Pplu        PP_U433          OUT_U433         TYPE2 PUMP  
  U435_Psan_1_ou_2 PP_U435          Out_U435         TYPE2 PUMP  
  U435_Psan_1_et_2 PP_U435          Out_U435         TYPE2 PUMP  
  U435_Psan_3      PP_U435          Out_U435         TYPE2 PUMP  
  U435_Psan_1_et_2_et_3 PP_U435          Out_U435         TYPE2 PUMP  
  U433_Psan_1_et_2 PP_U433          intMN-u433       TYPE2 PUMP  
  U433_Psan_1_et_2_et_3 PP_U433          intMN-u433       TYPE2 PUMP  
  muret-deversoir  R341121          R341121_2        WEIR        
  U433_muret-deversoir PP_U433          PP_U433a         WEIR        
  
  
  *********************
  Cross Section Summary
  *********************
                                        Full     Full     Hyd.     Max.   No. of     Full
  Conduit          Shape               Depth     Area     Rad.    Width  Barrels     Flow
  ---------------------------------------------------------------------------------------
  10139+386        CIRCULAR             0.53     0.22     0.13     0.53        1     0.20
  1024+9973        CIRCULAR             0.45     0.16     0.11     0.45        1     0.33
  346              CIRCULAR             0.25     0.05     0.06     0.25        1     0.05
  348              CIRCULAR             0.25     0.05     0.06     0.25        1     0.03
  361              CIRCULAR             0.60     0.28     0.15     0.60        1     0.23
  368              CIRCULAR             0.60     0.28     0.15     0.60        1     0.13
  370              CIRCULAR             0.38     0.11     0.09     0.38        1     0.27
  372              CIRCULAR             0.53     0.22     0.13     0.53        1     0.06
  391              CIRCULAR             0.60     0.28     0.15     0.60        1     0.25
  398              CIRCULAR             0.60     0.28     0.15     0.60        1     0.17
  400              CIRCULAR             0.60     0.28     0.15     0.60        1     0.23
  868              CIRCULAR             0.60     0.28     0.15     0.60        1     0.73
  890              CIRCULAR             0.60     0.28     0.15     0.60        1     0.99
  908              CIRCULAR             0.60     0.28     0.15     0.60        1     0.38
  912              CIRCULAR             0.60     0.28     0.15     0.60        1     1.21
  941              CIRCULAR             0.45     0.16     0.11     0.45        1     0.13
  953              CIRCULAR             0.38     0.11     0.09     0.38        1     0.05
  1029             CIRCULAR             0.53     0.22     0.13     0.53        1     0.20
  1031             CIRCULAR             0.53     0.22     0.13     0.53        1     0.39
  1038             CIRCULAR             0.53     0.22     0.13     0.53        1     0.20
  1057             CIRCULAR             0.38     0.11     0.09     0.38        1     0.12
  1058             CIRCULAR             0.60     0.28     0.15     0.60        1     0.42
  1107             CIRCULAR             0.60     0.28     0.15     0.60        1     0.78
  1267             CIRCULAR             0.30     0.07     0.07     0.30        1     0.11
  1294             CIRCULAR             0.45     0.16     0.11     0.45        1     0.11
  1320             CIRCULAR             0.45     0.16     0.11     0.45        1     0.11
  1439             CIRCULAR             0.45     0.16     0.11     0.45        1     0.16
  1441             CIRCULAR             0.45     0.16     0.11     0.45        1     0.10
  1506             CIRCULAR             0.60     0.28     0.15     0.60        1     0.62
  1645             CIRCULAR             0.30     0.07     0.07     0.30        1     0.11
  1664             CIRCULAR             0.60     0.28     0.15     0.60        1     0.44
  1712             CIRCULAR             0.38     0.11     0.09     0.38        1     0.12
  1722             CIRCULAR             0.38     0.11     0.09     0.38        1     0.12
  1724             CIRCULAR             0.38     0.11     0.09     0.38        1     0.10
  395+10292        CIRCULAR             0.60     0.28     0.15     0.60        1     0.36
  4141+892         CIRCULAR             0.90     0.64     0.23     0.90        1     1.17
  4312             CIRCULAR             0.60     0.28     0.15     0.60        1     0.22
  5401             CIRCULAR             0.60     0.28     0.15     0.60        1     0.21
  5423             CIRCULAR             0.60     0.28     0.15     0.60        1     0.24
  6173             CIRCULAR             0.25     0.05     0.06     0.25        1     0.12
  6178             CIRCULAR             0.25     0.05     0.06     0.25        1     0.03
  6184             CIRCULAR             0.38     0.11     0.09     0.38        1     0.07
  6187             CIRCULAR             0.38     0.11     0.09     0.38        1     0.10
  6199             CIRCULAR             0.60     0.28     0.15     0.60        1     0.78
  6200             CIRCULAR             0.60     0.28     0.15     0.60        1     0.11
  6204+4336        CIRCULAR             0.53     0.22     0.13     0.53        1     0.24
  6223             CIRCULAR             0.53     0.22     0.13     0.53        1     0.11
  6224+4325        CIRCULAR             0.60     0.28     0.15     0.60        1     0.28
  6225             CIRCULAR             0.53     0.22     0.13     0.53        1     0.32
  6337             CIRCULAR             0.60     0.28     0.15     0.60        1     0.31
  6704+9953        CIRCULAR             0.60     0.28     0.15     0.60        1     0.29
  6732             CIRCULAR             0.38     0.11     0.09     0.38        1     0.20
  6737             CIRCULAR             0.38     0.11     0.09     0.38        1     0.07
  6738             CIRCULAR             0.45     0.16     0.11     0.45        1     0.21
  6809             CIRCULAR             0.30     0.07     0.07     0.30        1     0.05
  6862             CIRCULAR             0.60     0.28     0.15     0.60        1     0.92
  6864             CIRCULAR             0.38     0.11     0.09     0.38        1     0.09
  6867             CIRCULAR             0.60     0.28     0.15     0.60        1     0.16
  6868             CIRCULAR             0.53     0.22     0.13     0.53        1     0.22
  6870             CIRCULAR             0.53     0.22     0.13     0.53        1     0.08
  6876             CIRCULAR             0.60     0.28     0.15     0.60        1     0.16
  7123             CIRCULAR             0.60     0.28     0.15     0.60        1     0.33
  7159             CIRCULAR             0.45     0.16     0.11     0.45        1     0.10
  7161             CIRCULAR             0.45     0.16     0.11     0.45        1     0.31
  7234             CIRCULAR             0.38     0.11     0.09     0.38        1     0.09
  7282+9325        CIRCULAR             0.45     0.16     0.11     0.45        1     0.11
  7471             CIRCULAR             0.60     0.28     0.15     0.60        1     0.44
  7474             CIRCULAR             0.25     0.05     0.06     0.25        1     0.04
  7476             CIRCULAR             0.25     0.05     0.06     0.25        1     0.05
  7492             CIRCULAR             0.60     0.28     0.15     0.60        1     0.44
  7515             CIRCULAR             0.30     0.07     0.07     0.30        1     0.11
  7523             CIRCULAR             0.38     0.11     0.09     0.38        1     0.12
  7526             CIRCULAR             0.38     0.11     0.09     0.38        1     0.10
  7622             CIRCULAR             0.60     0.28     0.15     0.60        1     0.11
  8246             CIRCULAR             0.25     0.05     0.06     0.25        1     0.05
  9996             CIRCULAR             0.60     0.28     0.15     0.60        1     0.78
  10296            CIRCULAR             0.60     0.28     0.15     0.60        1     0.52
  11161            CIRCULAR             0.38     0.11     0.09     0.38        1     0.58
  11173            CIRCULAR             0.38     0.11     0.09     0.38        1     0.11
  cond_fict_1      CIRCULAR             0.72     0.41     0.18     0.72        1     1.00
  cond_fict_2      CIRCULAR             0.72     0.41     0.18     0.72        1     1.00
  CTPP_U435        CIRCULAR             0.45     0.16     0.11     0.45        1     0.36
  DOM10324         CIRCULAR             0.60     0.28     0.15     0.60        1     0.57
  fictive_conduit  CIRCULAR             0.30     0.07     0.07     0.30        1     0.10
  Ref_U435         DUMMY                0.00     0.00     0.00     0.00        1     0.00
  
  
  ****************
  Analysis Options
  ****************
  Flow Units ............... CMS
  Process Models:
    Rainfall/Runoff ........ YES
    RDII ................... NO
    Snowmelt ............... NO
    Groundwater ............ NO
    Flow Routing ........... YES
    Ponding Allowed ........ YES
    Water Quality .......... NO
  Infiltration Method ...... HORTON
  Flow Routing Method ...... DYNWAVE
  Surcharge Method ......... EXTRAN
  Starting Date ............ 05/25/2010 00:00:00
  Ending Date .............. 05/26/2010 12:00:00
  Antecedent Dry Days ...... 0.0
  Report Time Step ......... 00:00:30
  Wet Time Step ............ 00:01:00
  Dry Time Step ............ 00:01:00
  Routing Time Step ........ 10.00 sec
  Variable Time Step ....... YES
  Maximum Trials ........... 8
  Number of Threads ........ 1
  Head Tolerance ........... 0.001500 m
  
  
  *********************
  Control Actions Taken
  *********************
   05/25/2010: 00:28:40 Link U433_Psan_1_ou_2 setting changed to   1.00 by Control U433_R2
   05/25/2010: 00:29:10 Link U435_Psan_1_ou_2 setting changed to   1.00 by Control U435_R2
   05/25/2010: 00:36:41 Link U435_Psan_1_ou_2 setting changed to   0.00 by Control U435_R1
   05/25/2010: 00:49:29 Link U435_Psan_1_ou_2 setting changed to   1.00 by Control U435_R2
   05/25/2010: 00:50:20 Link U433_Psan_1_ou_2 setting changed to   0.00 by Control U433_R1
   05/25/2010: 00:57:08 Link U435_Psan_1_ou_2 setting changed to   0.00 by Control U435_R1
   05/25/2010: 01:10:16 Link U435_Psan_1_ou_2 setting changed to   1.00 by Control U435_R2
   05/25/2010: 01:13:29 Link U433_Psan_1_ou_2 setting changed to   1.00 by Control U433_R2
   05/25/2010: 01:17:22 Link U435_Psan_1_ou_2 setting changed to   0.00 by Control U435_R1
   05/25/2010: 01:32:10 Link U435_Psan_1_ou_2 setting changed to   1.00 by Control U435_R2
   05/25/2010: 01:39:08 Link U435_Psan_1_ou_2 setting changed to   0.00 by Control U435_R1
   05/25/2010: 01:54:06 Link U435_Psan_1_ou_2 setting changed to   1.00 by Control U435_R2
   05/25/2010: 02:00:56 Link U433_Psan_1_ou_2 setting changed to   0.00 by Control U433_R1
   05/25/2010: 02:01:04 Link U435_Psan_1_ou_2 setting changed to   0.00 by Control U435_R1
   05/25/2010: 02:16:32 Link U435_Psan_1_ou_2 setting changed to   1.00 by Control U435_R2
   05/25/2010: 02:17:40 Link U433_Psan_1_ou_2 setting changed to   1.00 by Control U433_R2
   05/25/2010: 02:23:13 Link U435_Psan_1_ou_2 setting changed to   0.00 by Control U435_R1
   05/25/2010: 02:39:01 Link U435_Psan_1_ou_2 setting changed to   1.00 by Control U435_R2
   05/25/2010: 02:45:50 Link U435_Psan_1_ou_2 setting changed to   0.00 by Control U435_R1
   05/25/2010: 02:56:28 Link U433_Psan_1_ou_2 setting changed to   0.00 by Control U433_R1
   05/25/2010: 03:01:48 Link U435_Psan_1_ou_2 setting changed to   1.00 by Control U435_R2
   05/25/2010: 03:08:21 Link U435_Psan_1_ou_2 setting changed to   0.00 by Control U435_R1
   05/25/2010: 03:14:39 Link U433_Psan_1_ou_2 setting changed to   1.00 by Control U433_R2
   05/25/2010: 03:26:09 Link U435_Psan_1_ou_2 setting changed to   1.00 by Control U435_R2
   05/25/2010: 03:32:34 Link U435_Psan_1_ou_2 setting changed to   0.00 by Control U435_R1
   05/25/2010: 03:45:12 Link U433_Psan_1_ou_2 setting changed to   0.00 by Control U433_R1
   05/25/2010: 03:51:12 Link U435_Psan_1_ou_2 setting changed to   1.00 by Control U435_R2
   05/25/2010: 03:57:36 Link U435_Psan_1_ou_2 setting changed to   0.00 by Control U435_R1
   05/25/2010: 04:05:04 Link U433_Psan_1_ou_2 setting changed to   1.00 by Control U433_R2
   05/25/2010: 04:16:24 Link U435_Psan_1_ou_2 setting changed to   1.00 by Control U435_R2
   05/25/2010: 04:22:49 Link U435_Psan_1_ou_2 setting changed to   0.00 by Control U435_R1
   05/25/2010: 04:32:46 Link U433_Psan_1_ou_2 setting changed to   0.00 by Control U433_R1
   05/25/2010: 04:41:46 Link U435_Psan_1_ou_2 setting changed to   1.00 by Control U435_R2
   05/25/2010: 04:48:11 Link U435_Psan_1_ou_2 setting changed to   0.00 by Control U435_R1
   05/25/2010: 04:53:19 Link U433_Psan_1_ou_2 setting changed to   1.00 by Control U433_R2
   05/25/2010: 05:06:59 Link U435_Psan_1_ou_2 setting changed to   1.00 by Control U435_R2
   05/25/2010: 05:13:32 Link U435_Psan_1_ou_2 setting changed to   0.00 by Control U435_R1
   05/25/2010: 05:23:00 Link U433_Psan_1_ou_2 setting changed to   0.00 by Control U433_R1
   05/25/2010: 05:30:20 Link U435_Psan_1_ou_2 setting changed to   1.00 by Control U435_R2
   05/25/2010: 05:36:53 Link U435_Psan_1_ou_2 setting changed to   0.00 by Control U435_R1
   05/25/2010: 05:42:11 Link U433_Psan_1_ou_2 setting changed to   1.00 by Control U433_R2
   05/25/2010: 05:53:21 Link U435_Psan_1_ou_2 setting changed to   1.00 by Control U435_R2
   05/25/2010: 06:00:02 Link U435_Psan_1_ou_2 setting changed to   0.00 by Control U435_R1
   05/25/2010: 06:15:10 Link U435_Psan_1_ou_2 setting changed to   1.00 by Control U435_R2
   05/25/2010: 06:17:41 Link U433_Psan_1_ou_2 setting changed to   0.00 by Control U433_R1
   05/25/2010: 06:22:16 Link U435_Psan_1_ou_2 setting changed to   0.00 by Control U435_R1
   05/25/2010: 06:33:14 Link U433_Psan_1_ou_2 setting changed to   1.00 by Control U433_R2
   05/25/2010: 06:36:04 Link U435_Psan_1_ou_2 setting changed to   1.00 by Control U435_R2
   05/25/2010: 06:43:18 Link U435_Psan_1_ou_2 setting changed to   0.00 by Control U435_R1
   05/25/2010: 06:56:56 Link U435_Psan_1_ou_2 setting changed to   1.00 by Control U435_R2
   05/25/2010: 07:04:19 Link U435_Psan_1_ou_2 setting changed to   0.00 by Control U435_R1
   05/25/2010: 07:16:07 Link U435_Psan_1_ou_2 setting changed to   1.00 by Control U435_R2
   05/25/2010: 07:22:54 Link U435_Psan_1_ou_2 setting changed to   0.00 by Control U435_R3
   05/25/2010: 07:22:54 Link U435_Psan_1_et_2 setting changed to   1.00 by Control U435_R3
   05/25/2010: 07:23:16 Link U435_Psan_1_et_2 setting changed to   0.00 by Control U435_R4
   05/25/2010: 07:23:23 Link U435_Psan_3 setting changed to   1.00 by Control U435_R5
   05/25/2010: 07:23:30 Link U435_Psan_3 setting changed to   0.00 by Control U435_R6
   05/25/2010: 07:23:30 Link U435_Psan_1_et_2_et_3 setting changed to   1.00 by Control U435_R6
   05/25/2010: 07:26:41 Link U433_Psan_1_ou_2 setting changed to   0.00 by Control U433_R3
   05/25/2010: 07:26:41 Link U433_Psan_1_et_2 setting changed to   1.00 by Control U433_R3
   05/25/2010: 07:27:20 Link U433_Psan_1_et_2 setting changed to   0.00 by Control U433_R4
   05/25/2010: 07:27:20 Link U433_Psan_1_et_2_et_3 setting changed to   1.00 by Control U433_R4
   05/25/2010: 08:45:52 Link U435_Psan_1_et_2_et_3 setting changed to   0.00 by Control U435_R1
   05/25/2010: 08:51:44 Link U435_Psan_1_ou_2 setting changed to   1.00 by Control U435_R2
   05/25/2010: 09:05:26 Link U435_Psan_1_ou_2 setting changed to   0.00 by Control U435_R1
   05/25/2010: 09:13:20 Link U435_Psan_1_ou_2 setting changed to   1.00 by Control U435_R2
   05/25/2010: 09:17:41 Link U433_Psan_1_et_2_et_3 setting changed to   0.00 by Control U433_R1
   05/25/2010: 09:24:53 Link U435_Psan_1_ou_2 setting changed to   0.00 by Control U435_R1
   05/25/2010: 09:25:21 Link U433_Psan_1_ou_2 setting changed to   1.00 by Control U433_R2
   05/25/2010: 09:30:33 Link U433_Psan_1_ou_2 setting changed to   0.00 by Control U433_R3
   05/25/2010: 09:30:33 Link U433_Psan_1_et_2 setting changed to   1.00 by Control U433_R3
   05/25/2010: 09:33:12 Link U435_Psan_1_ou_2 setting changed to   1.00 by Control U435_R2
   05/25/2010: 09:44:04 Link U435_Psan_1_ou_2 setting changed to   0.00 by Control U435_R1
   05/25/2010: 09:52:35 Link U435_Psan_1_ou_2 setting changed to   1.00 by Control U435_R2
   05/25/2010: 09:55:32 Link U433_Psan_1_et_2 setting changed to   0.00 by Control U433_R1
   05/25/2010: 10:03:10 Link U435_Psan_1_ou_2 setting changed to   0.00 by Control U435_R1
   05/25/2010: 10:03:47 Link U433_Psan_1_ou_2 setting changed to   1.00 by Control U433_R2
   05/25/2010: 10:08:36 Link U433_Psan_1_ou_2 setting changed to   0.00 by Control U433_R3
   05/25/2010: 10:08:36 Link U433_Psan_1_et_2 setting changed to   1.00 by Control U433_R3
   05/25/2010: 10:11:22 Link U435_Psan_1_ou_2 setting changed to   1.00 by Control U435_R2
   05/25/2010: 10:23:20 Link U435_Psan_1_ou_2 setting changed to   0.00 by Control U435_R1
   05/25/2010: 10:31:13 Link U435_Psan_1_ou_2 setting changed to   1.00 by Control U435_R2
   05/25/2010: 10:38:37 Link U433_Psan_1_et_2 setting changed to   0.00 by Control U433_R1
   05/25/2010: 10:43:20 Link U435_Psan_1_ou_2 setting changed to   0.00 by Control U435_R1
   05/25/2010: 10:46:40 Link U433_Psan_1_ou_2 setting changed to   1.00 by Control U433_R2
   05/25/2010: 10:51:12 Link U435_Psan_1_ou_2 setting changed to   1.00 by Control U435_R2
   05/25/2010: 10:51:44 Link U433_Psan_1_ou_2 setting changed to   0.00 by Control U433_R3
   05/25/2010: 10:51:44 Link U433_Psan_1_et_2 setting changed to   1.00 by Control U433_R3
   05/25/2010: 11:03:09 Link U435_Psan_1_ou_2 setting changed to   0.00 by Control U435_R1
   05/25/2010: 11:11:20 Link U435_Psan_1_ou_2 setting changed to   1.00 by Control U435_R2
   05/25/2010: 11:20:48 Link U433_Psan_1_et_2 setting changed to   0.00 by Control U433_R1
   05/25/2010: 11:21:55 Link U435_Psan_1_ou_2 setting changed to   0.00 by Control U435_R1
   05/25/2010: 11:29:44 Link U433_Psan_1_ou_2 setting changed to   1.00 by Control U433_R2
   05/25/2010: 11:30:34 Link U435_Psan_1_ou_2 setting changed to   1.00 by Control U435_R2
   05/25/2010: 11:35:44 Link U433_Psan_1_ou_2 setting changed to   0.00 by Control U433_R3
   05/25/2010: 11:35:44 Link U433_Psan_1_et_2 setting changed to   1.00 by Control U433_R3
   05/25/2010: 11:41:00 Link U435_Psan_1_ou_2 setting changed to   0.00 by Control U435_R1
   05/25/2010: 11:49:42 Link U435_Psan_1_ou_2 setting changed to   1.00 by Control U435_R2
   05/25/2010: 12:00:09 Link U435_Psan_1_ou_2 setting changed to   0.00 by Control U435_R1
   05/25/2010: 12:02:04 Link U433_Psan_1_et_2 setting changed to   0.00 by Control U433_R1
   05/25/2010: 12:08:52 Link U435_Psan_1_ou_2 setting changed to   1.00 by Control U435_R2
   05/25/2010: 12:11:33 Link U433_Psan_1_ou_2 setting changed to   1.00 by Control U433_R2
   05/25/2010: 12:16:41 Link U433_Psan_1_ou_2 setting changed to   0.00 by Control U433_R3
   05/25/2010: 12:16:41 Link U433_Psan_1_et_2 setting changed to   1.00 by Control U433_R3
   05/25/2010: 12:19:10 Link U435_Psan_1_ou_2 setting changed to   0.00 by Control U435_R1
   05/25/2010: 12:27:53 Link U435_Psan_1_ou_2 setting changed to   1.00 by Control U435_R2
   05/25/2010: 12:38:15 Link U435_Psan_1_ou_2 setting changed to   0.00 by Control U435_R1
   05/25/2010: 12:41:58 Link U433_Psan_1_et_2 setting changed to   0.00 by Control U433_R1
   05/25/2010: 12:46:58 Link U435_Psan_1_ou_2 setting changed to   1.00 by Control U435_R2
   05/25/2010: 12:51:30 Link U433_Psan_1_ou_2 setting changed to   1.00 by Control U433_R2
   05/25/2010: 12:56:21 Link U433_Psan_1_ou_2 setting changed to   0.00 by Control U433_R3
   05/25/2010: 12:56:21 Link U433_Psan_1_et_2 setting changed to   1.00 by Control U433_R3
   05/25/2010: 12:57:19 Link U435_Psan_1_ou_2 setting changed to   0.00 by Control U435_R1
   05/25/2010: 13:06:03 Link U435_Psan_1_ou_2 setting changed to   1.00 by Control U435_R2
   05/25/2010: 13:15:48 Link U435_Psan_1_ou_2 setting changed to   0.00 by Control U435_R1
   05/25/2010: 13:19:33 Link U433_Psan_1_et_2 setting changed to   0.00 by Control U433_R1
   05/25/2010: 13:25:03 Link U435_Psan_1_ou_2 setting changed to   1.00 by Control U435_R2
   05/25/2010: 13:29:47 Link U433_Psan_1_ou_2 setting changed to   1.00 by Control U433_R2
   05/25/2010: 13:34:47 Link U435_Psan_1_ou_2 setting changed to   0.00 by Control U435_R1
   05/25/2010: 13:36:54 Link U433_Psan_1_ou_2 setting changed to   0.00 by Control U433_R3
   05/25/2010: 13:36:54 Link U433_Psan_1_et_2 setting changed to   1.00 by Control U433_R3
   05/25/2010: 13:44:04 Link U435_Psan_1_ou_2 setting changed to   1.00 by Control U435_R2
   05/25/2010: 13:53:40 Link U435_Psan_1_ou_2 setting changed to   0.00 by Control U435_R1
   05/25/2010: 13:56:48 Link U433_Psan_1_et_2 setting changed to   0.00 by Control U433_R1
   05/25/2010: 14:03:08 Link U435_Psan_1_ou_2 setting changed to   1.00 by Control U435_R2
   05/25/2010: 14:07:44 Link U433_Psan_1_ou_2 setting changed to   1.00 by Control U433_R2
   05/25/2010: 14:12:10 Link U435_Psan_1_ou_2 setting changed to   0.00 by Control U435_R1
   05/25/2010: 14:22:28 Link U435_Psan_1_ou_2 setting changed to   1.00 by Control U435_R2
   05/25/2010: 14:29:51 Link U433_Psan_1_ou_2 setting changed to   0.00 by Control U433_R3
   05/25/2010: 14:29:51 Link U433_Psan_1_et_2 setting changed to   1.00 by Control U433_R3
   05/25/2010: 14:30:58 Link U435_Psan_1_ou_2 setting changed to   0.00 by Control U435_R1
   05/25/2010: 14:41:35 Link U435_Psan_1_ou_2 setting changed to   1.00 by Control U435_R2
   05/25/2010: 14:46:28 Link U433_Psan_1_et_2 setting changed to   0.00 by Control U433_R1
   05/25/2010: 14:50:05 Link U435_Psan_1_ou_2 setting changed to   0.00 by Control U435_R1
   05/25/2010: 14:57:43 Link U433_Psan_1_ou_2 setting changed to   1.00 by Control U433_R2
   05/25/2010: 15:00:43 Link U435_Psan_1_ou_2 setting changed to   1.00 by Control U435_R2
   05/25/2010: 15:09:12 Link U435_Psan_1_ou_2 setting changed to   0.00 by Control U435_R1
   05/25/2010: 15:19:30 Link U435_Psan_1_ou_2 setting changed to   1.00 by Control U435_R2
   05/25/2010: 15:28:08 Link U435_Psan_1_ou_2 setting changed to   0.00 by Control U435_R1
   05/25/2010: 15:38:26 Link U435_Psan_1_ou_2 setting changed to   1.00 by Control U435_R2
   05/25/2010: 15:47:12 Link U435_Psan_1_ou_2 setting changed to   0.00 by Control U435_R1
   05/25/2010: 15:50:39 Link U433_Psan_1_ou_2 setting changed to   0.00 by Control U433_R3
   05/25/2010: 15:50:39 Link U433_Psan_1_et_2 setting changed to   1.00 by Control U433_R3
   05/25/2010: 15:57:39 Link U435_Psan_1_ou_2 setting changed to   1.00 by Control U435_R2
   05/25/2010: 16:06:25 Link U435_Psan_1_ou_2 setting changed to   0.00 by Control U435_R1
   05/25/2010: 16:07:13 Link U433_Psan_1_et_2 setting changed to   0.00 by Control U433_R1
   05/25/2010: 16:17:03 Link U435_Psan_1_ou_2 setting changed to   1.00 by Control U435_R2
   05/25/2010: 16:18:53 Link U433_Psan_1_ou_2 setting changed to   1.00 by Control U433_R2
   05/25/2010: 16:25:41 Link U435_Psan_1_ou_2 setting changed to   0.00 by Control U435_R1
   05/25/2010: 16:36:29 Link U435_Psan_1_ou_2 setting changed to   1.00 by Control U435_R2
   05/25/2010: 16:45:07 Link U435_Psan_1_ou_2 setting changed to   0.00 by Control U435_R1
   05/25/2010: 16:55:55 Link U435_Psan_1_ou_2 setting changed to   1.00 by Control U435_R2
   05/25/2010: 17:04:32 Link U435_Psan_1_ou_2 setting changed to   0.00 by Control U435_R1
   05/25/2010: 17:15:20 Link U435_Psan_1_ou_2 setting changed to   1.00 by Control U435_R2
   05/25/2010: 17:23:58 Link U435_Psan_1_ou_2 setting changed to   0.00 by Control U435_R1
   05/25/2010: 17:34:46 Link U435_Psan_1_ou_2 setting changed to   1.00 by Control U435_R2
   05/25/2010: 17:43:23 Link U435_Psan_1_ou_2 setting changed to   0.00 by Control U435_R1
   05/25/2010: 17:46:31 Link U433_Psan_1_ou_2 setting changed to   0.00 by Control U433_R3
   05/25/2010: 17:46:31 Link U433_Psan_1_et_2 setting changed to   1.00 by Control U433_R3
   05/25/2010: 17:54:11 Link U435_Psan_1_ou_2 setting changed to   1.00 by Control U435_R2
   05/25/2010: 18:02:24 Link U433_Psan_1_et_2 setting changed to   0.00 by Control U433_R1
   05/25/2010: 18:02:49 Link U435_Psan_1_ou_2 setting changed to   0.00 by Control U435_R1
   05/25/2010: 18:13:17 Link U435_Psan_1_ou_2 setting changed to   1.00 by Control U435_R2
   05/25/2010: 18:13:44 Link U433_Psan_1_ou_2 setting changed to   1.00 by Control U433_R2
   05/25/2010: 18:22:11 Link U435_Psan_1_ou_2 setting changed to   0.00 by Control U435_R1
   05/25/2010: 18:32:29 Link U435_Psan_1_ou_2 setting changed to   1.00 by Control U435_R2
   05/25/2010: 18:41:23 Link U435_Psan_1_ou_2 setting changed to   0.00 by Control U435_R1
   05/25/2010: 18:45:41 Link U433_Psan_1_ou_2 setting changed to   0.00 by Control U433_R3
   05/25/2010: 18:45:41 Link U433_Psan_1_et_2 setting changed to   1.00 by Control U433_R3
   05/25/2010: 18:51:31 Link U435_Psan_1_ou_2 setting changed to   1.00 by Control U435_R2
   05/25/2010: 19:00:26 Link U435_Psan_1_ou_2 setting changed to   0.00 by Control U435_R1
   05/25/2010: 19:02:44 Link U433_Psan_1_et_2 setting changed to   0.00 by Control U433_R1
   05/25/2010: 19:10:44 Link U435_Psan_1_ou_2 setting changed to   1.00 by Control U435_R2
   05/25/2010: 19:14:13 Link U433_Psan_1_ou_2 setting changed to   1.00 by Control U433_R2
   05/25/2010: 19:19:38 Link U435_Psan_1_ou_2 setting changed to   0.00 by Control U435_R1
   05/25/2010: 19:29:46 Link U435_Psan_1_ou_2 setting changed to   1.00 by Control U435_R2
   05/25/2010: 19:38:40 Link U435_Psan_1_ou_2 setting changed to   0.00 by Control U435_R1
   05/25/2010: 19:38:58 Link U433_Psan_1_ou_2 setting changed to   0.00 by Control U433_R3
   05/25/2010: 19:38:58 Link U433_Psan_1_et_2 setting changed to   1.00 by Control U433_R3
   05/25/2010: 19:48:48 Link U435_Psan_1_ou_2 setting changed to   1.00 by Control U435_R2
   05/25/2010: 19:56:03 Link U433_Psan_1_et_2 setting changed to   0.00 by Control U433_R1
   05/25/2010: 19:57:42 Link U435_Psan_1_ou_2 setting changed to   0.00 by Control U435_R1
   05/25/2010: 20:06:40 Link U433_Psan_1_ou_2 setting changed to   1.00 by Control U433_R2
   05/25/2010: 20:07:50 Link U435_Psan_1_ou_2 setting changed to   1.00 by Control U435_R2
   05/25/2010: 20:17:18 Link U435_Psan_1_ou_2 setting changed to   0.00 by Control U435_R1
   05/25/2010: 20:22:16 Link U433_Psan_1_ou_2 setting changed to   0.00 by Control U433_R3
   05/25/2010: 20:22:16 Link U433_Psan_1_et_2 setting changed to   1.00 by Control U433_R3
   05/25/2010: 20:26:56 Link U435_Psan_1_ou_2 setting changed to   1.00 by Control U435_R2
   05/25/2010: 20:36:32 Link U435_Psan_1_ou_2 setting changed to   0.00 by Control U435_R1
   05/25/2010: 20:40:50 Link U433_Psan_1_et_2 setting changed to   0.00 by Control U433_R1
   05/25/2010: 20:46:00 Link U435_Psan_1_ou_2 setting changed to   1.00 by Control U435_R2
   05/25/2010: 20:51:43 Link U433_Psan_1_ou_2 setting changed to   1.00 by Control U433_R2
   05/25/2010: 20:55:36 Link U435_Psan_1_ou_2 setting changed to   0.00 by Control U435_R1
   05/25/2010: 21:00:33 Link U433_Psan_1_ou_2 setting changed to   0.00 by Control U433_R3
   05/25/2010: 21:00:33 Link U433_Psan_1_et_2 setting changed to   1.00 by Control U433_R3
   05/25/2010: 21:05:03 Link U435_Psan_1_ou_2 setting changed to   1.00 by Control U435_R2
   05/25/2010: 21:14:39 Link U435_Psan_1_ou_2 setting changed to   0.00 by Control U435_R1
   05/25/2010: 21:19:57 Link U433_Psan_1_et_2 setting changed to   0.00 by Control U433_R1
   05/25/2010: 21:24:07 Link U435_Psan_1_ou_2 setting changed to   1.00 by Control U435_R2
   05/25/2010: 21:30:40 Link U433_Psan_1_ou_2 setting changed to   1.00 by Control U433_R2
   05/25/2010: 21:33:43 Link U435_Psan_1_ou_2 setting changed to   0.00 by Control U435_R1
   05/25/2010: 21:39:21 Link U433_Psan_1_ou_2 setting changed to   0.00 by Control U433_R3
   05/25/2010: 21:39:21 Link U433_Psan_1_et_2 setting changed to   1.00 by Control U433_R3
   05/25/2010: 21:43:01 Link U435_Psan_1_ou_2 setting changed to   1.00 by Control U435_R2
   05/25/2010: 21:52:28 Link U435_Psan_1_ou_2 setting changed to   0.00 by Control U435_R1
   05/25/2010: 21:58:46 Link U433_Psan_1_et_2 setting changed to   0.00 by Control U433_R1
   05/25/2010: 22:01:46 Link U435_Psan_1_ou_2 setting changed to   1.00 by Control U435_R2
   05/25/2010: 22:09:42 Link U433_Psan_1_ou_2 setting changed to   1.00 by Control U433_R2
   05/25/2010: 22:10:57 Link U435_Psan_1_ou_2 setting changed to   0.00 by Control U435_R1
   05/25/2010: 22:21:15 Link U435_Psan_1_ou_2 setting changed to   1.00 by Control U435_R2
   05/25/2010: 22:29:44 Link U433_Psan_1_ou_2 setting changed to   0.00 by Control U433_R3
   05/25/2010: 22:29:44 Link U433_Psan_1_et_2 setting changed to   1.00 by Control U433_R3
   05/25/2010: 22:30:01 Link U435_Psan_1_ou_2 setting changed to   0.00 by Control U435_R1
   05/25/2010: 22:40:29 Link U435_Psan_1_ou_2 setting changed to   1.00 by Control U435_R2
   05/25/2010: 22:46:37 Link U433_Psan_1_et_2 setting changed to   0.00 by Control U433_R1
   05/25/2010: 22:49:15 Link U435_Psan_1_ou_2 setting changed to   0.00 by Control U435_R1
   05/25/2010: 22:57:33 Link U433_Psan_1_ou_2 setting changed to   1.00 by Control U433_R2
   05/25/2010: 22:59:43 Link U435_Psan_1_ou_2 setting changed to   1.00 by Control U435_R2
   05/25/2010: 23:08:20 Link U435_Psan_1_ou_2 setting changed to   0.00 by Control U435_R1
   05/25/2010: 23:18:48 Link U435_Psan_1_ou_2 setting changed to   1.00 by Control U435_R2
   05/25/2010: 23:27:26 Link U435_Psan_1_ou_2 setting changed to   0.00 by Control U435_R1
   05/25/2010: 23:37:54 Link U435_Psan_1_ou_2 setting changed to   1.00 by Control U435_R2
   05/25/2010: 23:46:32 Link U435_Psan_1_ou_2 setting changed to   0.00 by Control U435_R1
   05/25/2010: 23:51:00 Link U433_Psan_1_ou_2 setting changed to   0.00 by Control U433_R3
   05/25/2010: 23:51:00 Link U433_Psan_1_et_2 setting changed to   1.00 by Control U433_R3
   05/25/2010: 23:57:10 Link U435_Psan_1_ou_2 setting changed to   1.00 by Control U435_R2
   05/26/2010: 00:05:39 Link U435_Psan_1_ou_2 setting changed to   0.00 by Control U435_R1
   05/26/2010: 00:06:47 Link U433_Psan_1_et_2 setting changed to   0.00 by Control U433_R1
   05/26/2010: 00:17:27 Link U435_Psan_1_ou_2 setting changed to   1.00 by Control U435_R2
   05/26/2010: 00:19:42 Link U433_Psan_1_ou_2 setting changed to   1.00 by Control U433_R2
   05/26/2010: 00:25:15 Link U435_Psan_1_ou_2 setting changed to   0.00 by Control U435_R1
   05/26/2010: 00:37:42 Link U435_Psan_1_ou_2 setting changed to   1.00 by Control U435_R2
   05/26/2010: 00:45:22 Link U435_Psan_1_ou_2 setting changed to   0.00 by Control U435_R1
   05/26/2010: 00:58:00 Link U435_Psan_1_ou_2 setting changed to   1.00 by Control U435_R2
   05/26/2010: 01:05:31 Link U435_Psan_1_ou_2 setting changed to   0.00 by Control U435_R1
   05/26/2010: 01:19:29 Link U435_Psan_1_ou_2 setting changed to   1.00 by Control U435_R2
   05/26/2010: 01:26:27 Link U435_Psan_1_ou_2 setting changed to   0.00 by Control U435_R1
   05/26/2010: 01:37:45 Link U433_Psan_1_ou_2 setting changed to   0.00 by Control U433_R1
   05/26/2010: 01:41:15 Link U435_Psan_1_ou_2 setting changed to   1.00 by Control U435_R2
   05/26/2010: 01:48:12 Link U435_Psan_1_ou_2 setting changed to   0.00 by Control U435_R1
   05/26/2010: 01:53:30 Link U433_Psan_1_ou_2 setting changed to   1.00 by Control U433_R2
   05/26/2010: 02:03:10 Link U435_Psan_1_ou_2 setting changed to   1.00 by Control U435_R2
   05/26/2010: 02:10:00 Link U435_Psan_1_ou_2 setting changed to   0.00 by Control U435_R1
   05/26/2010: 02:25:38 Link U435_Psan_1_ou_2 setting changed to   1.00 by Control U435_R2
   05/26/2010: 02:32:27 Link U435_Psan_1_ou_2 setting changed to   0.00 by Control U435_R1
   05/26/2010: 02:32:55 Link U433_Psan_1_ou_2 setting changed to   0.00 by Control U433_R1
   05/26/2010: 02:48:35 Link U435_Psan_1_ou_2 setting changed to   1.00 by Control U435_R2
   05/26/2010: 02:50:08 Link U433_Psan_1_ou_2 setting changed to   1.00 by Control U433_R2
   05/26/2010: 02:55:25 Link U435_Psan_1_ou_2 setting changed to   0.00 by Control U435_R1
   05/26/2010: 03:12:03 Link U435_Psan_1_ou_2 setting changed to   1.00 by Control U435_R2
   05/26/2010: 03:18:27 Link U435_Psan_1_ou_2 setting changed to   0.00 by Control U435_R1
   05/26/2010: 03:24:15 Link U433_Psan_1_ou_2 setting changed to   0.00 by Control U433_R1
   05/26/2010: 03:36:45 Link U435_Psan_1_ou_2 setting changed to   1.00 by Control U435_R2
   05/26/2010: 03:43:10 Link U435_Psan_1_ou_2 setting changed to   0.00 by Control U435_R1
   05/26/2010: 03:43:48 Link U433_Psan_1_ou_2 setting changed to   1.00 by Control U433_R2
   05/26/2010: 04:01:48 Link U435_Psan_1_ou_2 setting changed to   1.00 by Control U435_R2
   05/26/2010: 04:08:12 Link U435_Psan_1_ou_2 setting changed to   0.00 by Control U435_R1
   05/26/2010: 04:12:40 Link U433_Psan_1_ou_2 setting changed to   0.00 by Control U433_R1
   05/26/2010: 04:27:10 Link U435_Psan_1_ou_2 setting changed to   1.00 by Control U435_R2
   05/26/2010: 04:33:26 Link U433_Psan_1_ou_2 setting changed to   1.00 by Control U433_R2
   05/26/2010: 04:33:35 Link U435_Psan_1_ou_2 setting changed to   0.00 by Control U435_R1
   05/26/2010: 04:52:33 Link U435_Psan_1_ou_2 setting changed to   1.00 by Control U435_R2
   05/26/2010: 04:58:49 Link U435_Psan_1_ou_2 setting changed to   0.00 by Control U435_R1
   05/26/2010: 05:01:07 Link U433_Psan_1_ou_2 setting changed to   0.00 by Control U433_R1
   05/26/2010: 05:16:27 Link U435_Psan_1_ou_2 setting changed to   1.00 by Control U435_R2
   05/26/2010: 05:20:46 Link U433_Psan_1_ou_2 setting changed to   1.00 by Control U433_R2
   05/26/2010: 05:23:00 Link U435_Psan_1_ou_2 setting changed to   0.00 by Control U435_R1
   05/26/2010: 05:39:27 Link U435_Psan_1_ou_2 setting changed to   1.00 by Control U435_R2
   05/26/2010: 05:46:09 Link U435_Psan_1_ou_2 setting changed to   0.00 by Control U435_R1
   05/26/2010: 05:53:17 Link U433_Psan_1_ou_2 setting changed to   0.00 by Control U433_R1
   05/26/2010: 06:02:47 Link U435_Psan_1_ou_2 setting changed to   1.00 by Control U435_R2
   05/26/2010: 06:09:36 Link U435_Psan_1_ou_2 setting changed to   0.00 by Control U435_R1
   05/26/2010: 06:10:44 Link U433_Psan_1_ou_2 setting changed to   1.00 by Control U433_R2
   05/26/2010: 06:23:44 Link U435_Psan_1_ou_2 setting changed to   1.00 by Control U435_R2
   05/26/2010: 06:30:59 Link U435_Psan_1_ou_2 setting changed to   0.00 by Control U435_R1
   05/26/2010: 06:44:46 Link U435_Psan_1_ou_2 setting changed to   1.00 by Control U435_R2
   05/26/2010: 06:52:01 Link U435_Psan_1_ou_2 setting changed to   0.00 by Control U435_R1
   05/26/2010: 06:58:09 Link U433_Psan_1_ou_2 setting changed to   0.00 by Control U433_R1
   05/26/2010: 07:05:19 Link U435_Psan_1_ou_2 setting changed to   1.00 by Control U435_R2
   05/26/2010: 07:12:08 Link U433_Psan_1_ou_2 setting changed to   1.00 by Control U433_R2
   05/26/2010: 07:13:07 Link U435_Psan_1_ou_2 setting changed to   0.00 by Control U435_R1
   05/26/2010: 07:24:24 Link U435_Psan_1_ou_2 setting changed to   1.00 by Control U435_R2
   05/26/2010: 07:32:37 Link U435_Psan_1_ou_2 setting changed to   0.00 by Control U435_R1
   05/26/2010: 07:43:35 Link U435_Psan_1_ou_2 setting changed to   1.00 by Control U435_R2
   05/26/2010: 07:51:56 Link U435_Psan_1_ou_2 setting changed to   0.00 by Control U435_R1
   05/26/2010: 08:02:54 Link U435_Psan_1_ou_2 setting changed to   1.00 by Control U435_R2
   05/26/2010: 08:11:48 Link U435_Psan_1_ou_2 setting changed to   0.00 by Control U435_R1
   05/26/2010: 08:21:26 Link U435_Psan_1_ou_2 setting changed to   1.00 by Control U435_R2
   05/26/2010: 08:30:54 Link U435_Psan_1_ou_2 setting changed to   0.00 by Control U435_R1
   05/26/2010: 08:40:22 Link U435_Psan_1_ou_2 setting changed to   1.00 by Control U435_R2
   05/26/2010: 08:49:49 Link U435_Psan_1_ou_2 setting changed to   0.00 by Control U435_R1
   05/26/2010: 08:51:27 Link U433_Psan_1_ou_2 setting changed to   0.00 by Control U433_R3
   05/26/2010: 08:51:27 Link U433_Psan_1_et_2 setting changed to   1.00 by Control U433_R3
   05/26/2010: 08:59:17 Link U435_Psan_1_ou_2 setting changed to   1.00 by Control U435_R2
   05/26/2010: 09:09:10 Link U435_Psan_1_ou_2 setting changed to   0.00 by Control U435_R1
   05/26/2010: 09:11:27 Link U433_Psan_1_et_2 setting changed to   0.00 by Control U433_R1
   05/26/2010: 09:17:56 Link U435_Psan_1_ou_2 setting changed to   1.00 by Control U435_R2
   05/26/2010: 09:21:39 Link U433_Psan_1_ou_2 setting changed to   1.00 by Control U433_R2
   05/26/2010: 09:28:19 Link U435_Psan_1_ou_2 setting changed to   0.00 by Control U435_R1
   05/26/2010: 09:28:36 Link U433_Psan_1_ou_2 setting changed to   0.00 by Control U433_R3
   05/26/2010: 09:28:36 Link U433_Psan_1_et_2 setting changed to   1.00 by Control U433_R3
   05/26/2010: 09:37:04 Link U435_Psan_1_ou_2 setting changed to   1.00 by Control U435_R2
   05/26/2010: 09:47:39 Link U435_Psan_1_ou_2 setting changed to   0.00 by Control U435_R1
   05/26/2010: 09:52:12 Link U433_Psan_1_et_2 setting changed to   0.00 by Control U433_R1
   05/26/2010: 09:56:22 Link U435_Psan_1_ou_2 setting changed to   1.00 by Control U435_R2
   05/26/2010: 10:02:02 Link U433_Psan_1_ou_2 setting changed to   1.00 by Control U433_R2
   05/26/2010: 10:06:28 Link U433_Psan_1_ou_2 setting changed to   0.00 by Control U433_R3
   05/26/2010: 10:06:28 Link U433_Psan_1_et_2 setting changed to   1.00 by Control U433_R3
   05/26/2010: 10:07:09 Link U435_Psan_1_ou_2 setting changed to   0.00 by Control U435_R1
   05/26/2010: 10:15:17 Link U435_Psan_1_ou_2 setting changed to   1.00 by Control U435_R2
   05/26/2010: 10:27:06 Link U435_Psan_1_ou_2 setting changed to   0.00 by Control U435_R1
   05/26/2010: 10:34:21 Link U433_Psan_1_et_2 setting changed to   0.00 by Control U433_R1
   05/26/2010: 10:35:00 Link U435_Psan_1_ou_2 setting changed to   1.00 by Control U435_R2
   05/26/2010: 10:42:32 Link U433_Psan_1_ou_2 setting changed to   1.00 by Control U433_R2
   05/26/2010: 10:46:08 Link U433_Psan_1_ou_2 setting changed to   0.00 by Control U433_R3
   05/26/2010: 10:46:08 Link U433_Psan_1_et_2 setting changed to   1.00 by Control U433_R3
   05/26/2010: 10:46:58 Link U435_Psan_1_ou_2 setting changed to   0.00 by Control U435_R1
   05/26/2010: 10:54:51 Link U435_Psan_1_ou_2 setting changed to   1.00 by Control U435_R2
   05/26/2010: 11:06:41 Link U435_Psan_1_ou_2 setting changed to   0.00 by Control U435_R1
   05/26/2010: 11:14:32 Link U433_Psan_1_et_2 setting changed to   0.00 by Control U433_R1
   05/26/2010: 11:15:11 Link U435_Psan_1_ou_2 setting changed to   1.00 by Control U435_R2
   05/26/2010: 11:23:16 Link U433_Psan_1_ou_2 setting changed to   1.00 by Control U433_R2
   05/26/2010: 11:25:46 Link U435_Psan_1_ou_2 setting changed to   0.00 by Control U435_R1
   05/26/2010: 11:27:31 Link U433_Psan_1_ou_2 setting changed to   0.00 by Control U433_R3
   05/26/2010: 11:27:31 Link U433_Psan_1_et_2 setting changed to   1.00 by Control U433_R3
   05/26/2010: 11:34:27 Link U435_Psan_1_ou_2 setting changed to   1.00 by Control U435_R2
   05/26/2010: 11:44:54 Link U435_Psan_1_ou_2 setting changed to   0.00 by Control U435_R1
   05/26/2010: 11:52:26 Link U433_Psan_1_et_2 setting changed to   0.00 by Control U433_R1
   05/26/2010: 11:53:36 Link U435_Psan_1_ou_2 setting changed to   1.00 by Control U435_R2

  
  **************************        Volume         Depth
  Runoff Quantity Continuity     hectare-m            mm
  **************************     ---------       -------
  Total Precipitation ......         0.484        26.701
  Evaporation Loss .........         0.026         1.423
  Infiltration Loss ........         0.000         0.000
  Surface Runoff ...........         0.459        25.303
  Final Storage ............         0.000         0.000
  Continuity Error (%) .....        -0.094
  
  
  **************************        Volume        Volume
  Flow Routing Continuity        hectare-m      10^6 ltr
  **************************     ---------     ---------
  Dry Weather Inflow .......         0.421         4.212
  Wet Weather Inflow .......         0.458         4.579
  Groundwater Inflow .......         0.000         0.000
  RDII Inflow ..............         0.000         0.000
  External Inflow ..........         0.415         4.147
  External Outflow .........         1.058        10.585
  Flooding Loss ............         0.231         2.311
  Evaporation Loss .........         0.000         0.000
  Exfiltration Loss ........         0.000         0.000
  Initial Stored Volume ....         0.003         0.035
  Final Stored Volume ......         0.022         0.217
  Continuity Error (%) .....        -1.085
  
  
  *************************
  Highest Continuity Errors
  *************************
  Node R009386 (-8.30%)
  Node R017733 (-8.21%)
  Node R006769 (6.99%)
  Node JN_352327 (5.53%)
  Node R014422 (3.15%)
  
  
  ***************************
  Time-Step Critical Elements
  ***************************
  Link fictive_conduit (47.46%)
  Link 6200 (7.81%)
  Node Out_U435 (1.12%)
  
  
  ********************************
  Highest Flow Instability Indexes
  ********************************
  Link Ref_U435 (14)
  Link fictive_conduit (11)
  Link 11173 (6)
  Link 1029 (5)
  Link 6200 (5)
  
  
  *********************************
  Most Frequent Nonconverging Nodes
  *********************************
  Node TPG_U435 (7.84%)
  Node OUT_U433_F (7.84%)
  Node intMN-u433_F (7.84%)
  Node TPP_U435 (7.84%)
  Node 1 (2.41%)
  
  
  *************************
  Routing Time Step Summary
  *************************
  Minimum Time Step           :     0.58 sec
  Average Time Step           :     8.79 sec
  Maximum Time Step           :    10.00 sec
  % of Time in Steady State   :     0.00
  Average Iterations per Step :     2.71
  % of Steps Not Converging   :     7.84
  Time Step Frequencies       :
     10.000 -  1.585 sec      :    99.65 %
      1.585 -  0.251 sec      :     0.35 %
      0.251 -  0.040 sec      :     0.00 %
      0.040 -  0.006 sec      :     0.00 %
      0.006 -  0.001 sec      :     0.00 %
  
  
  ***************************
  Subcatchment Runoff Summary
  ***************************
  
  ------------------------------------------------------------------------------------------------------------------------------
                            Total      Total      Total      Total     Imperv       Perv      Total       Total     Peak  Runoff
                           Precip      Runon       Evap      Infil     Runoff     Runoff     Runoff      Runoff   Runoff   Coeff
  Subcatchment                 mm         mm         mm         mm         mm         mm         mm    10^6 ltr      CMS
  ------------------------------------------------------------------------------------------------------------------------------
  DUB-00                    26.70       0.00       1.40       0.00      25.33       0.00      25.33        0.10     0.10   0.949
  DUB-02                    26.70       0.00       1.38       0.00      25.35       0.00      25.35        0.06     0.06   0.949
  DUB-21                    26.70       0.00       1.31       0.00      25.54       0.00      25.54        0.00     0.00   0.957
  DUB-22                    26.70       0.00       1.38       0.00      25.36       0.00      25.36        0.05     0.05   0.950
  DUB-23                    26.70       0.00       1.37       0.00      25.36       0.00      25.36        0.04     0.04   0.950
  DUB-24                    26.70       0.00       1.41       0.00      25.31       0.00      25.31        0.18     0.18   0.948
  DUB-25                    26.70       0.00       1.41       0.00      25.32       0.00      25.32        0.15     0.15   0.948
  DUB-26                    26.70       0.00       1.38       0.00      25.35       0.00      25.35        0.06     0.06   0.949
  DUB-27                    26.70       0.00       1.35       0.00      25.39       0.00      25.39        0.01     0.01   0.951
  DUB-28                    26.70       0.00       1.31       0.00      25.54       0.00      25.54        0.00     0.00   0.957
  DUB-32                    26.70       0.00       1.42       0.00      25.31       0.00      25.31        0.21     0.20   0.948
  DUB-33                    26.70       0.00       1.41       0.00      25.32       0.00      25.32        0.16     0.16   0.948
  DUB-34                    26.70       0.00       1.31       0.00      25.54       0.00      25.54        0.00     0.00   0.957
  DUB-35                    26.70       0.00       1.37       0.00      25.36       0.00      25.36        0.04     0.04   0.950
  DUB-30                    26.70       0.00       1.38       0.00      25.36       0.00      25.36        0.05     0.05   0.950
  DUB-04                    26.70       0.00       1.39       0.00      25.34       0.00      25.34        0.08     0.09   0.949
  DUB-05                    26.70       0.00       1.40       0.00      25.33       0.00      25.33        0.12     0.12   0.949
  DUB-10                    26.70       0.00       1.43       0.00      25.29       0.00      25.29        0.27     0.27   0.947
  DUB-13                    26.70       0.00       1.46       0.00      25.26       0.00      25.26        0.59     0.57   0.946
  DUB-36                    26.70       0.00       1.43       0.00      25.30       0.00      25.30        0.24     0.24   0.948
  DUB-11                    26.70       0.00       1.39       0.00      25.34       0.00      25.34        0.07     0.07   0.949
  DUB-03                    26.70       0.00       1.35       0.00      25.40       0.00      25.40        0.01     0.01   0.951
  DUB-12                    26.70       0.00       1.40       0.00      25.33       0.00      25.33        0.10     0.10   0.949
  DUB-14                    26.70       0.00       1.43       0.00      25.29       0.00      25.29        0.27     0.27   0.947
  DUB-16                    26.70       0.00       1.45       0.00      25.27       0.00      25.27        0.47     0.46   0.946
  DUB-29                    26.70       0.00       1.36       0.00      25.37       0.00      25.37        0.03     0.03   0.950
  DUB-37                    26.70       0.00       1.42       0.00      25.31       0.00      25.31        0.20     0.20   0.948
  DUB-01                    26.70       0.00       1.38       0.00      25.35       0.00      25.35        0.05     0.05   0.950
  DUB-06                    26.70       0.00       1.36       0.00      25.39       0.00      25.39        0.02     0.02   0.951
  DUB-08                    26.70       0.00       1.37       0.00      25.36       0.00      25.36        0.04     0.04   0.950
  DUB-09                    26.70       0.00       1.40       0.00      25.33       0.00      25.33        0.11     0.11   0.949
  DUB-15                    26.70       0.00       1.44       0.00      25.28       0.00      25.28        0.36     0.35   0.947
  DUB-17                    26.70       0.00       1.39       0.00      25.34       0.00      25.34        0.08     0.08   0.949
  DUB-18                    26.70       0.00       1.41       0.00      25.31       0.00      25.31        0.17     0.17   0.948
  DUB-19                    26.70       0.00       1.38       0.00      25.36       0.00      25.36        0.05     0.05   0.950
  DUB-20                    26.70       0.00       1.34       0.00      25.42       0.00      25.42        0.00     0.00   0.952
  DUB-07                    26.70       0.00       1.41       0.00      25.31       0.00      25.31        0.17     0.17   0.948
  
  
  ******************
  Node Depth Summary
  ******************
  
  ---------------------------------------------------------------------------------
                                 Average  Maximum  Maximum  Time of Max    Reported
                                   Depth    Depth      HGL   Occurrence   Max Depth
  Node                 Type       Meters   Meters   Meters  days hr:min      Meters
  ---------------------------------------------------------------------------------
  R093130              JUNCTION     0.09     2.15    10.81     0  07:26        2.15
  RA_9142              JUNCTION     0.22     3.28    11.26     0  07:26        3.28
  R017733              JUNCTION     0.03     2.56    14.24     0  07:27        2.57
  R017735              JUNCTION     0.02     2.40    14.43     0  07:27        2.40
  R017731              JUNCTION     0.03     2.94    14.21     0  07:26        2.94
  R017726              JUNCTION     0.03     2.69    14.61     0  07:27        2.67
  R017473              JUNCTION     0.23     3.33    11.40     0  07:25        3.33
  R014882              JUNCTION     0.01     0.84    14.82     0  07:28        0.49
  R014864              JUNCTION     0.12     3.80    12.25     0  07:25        3.67
  R014878              JUNCTION     0.13     4.29    14.38     0  07:28        4.29
  R014418              JUNCTION     0.02     3.05    15.33     0  07:27        2.90
  R014169              JUNCTION     0.07     3.54    14.61     0  07:25        3.29
  R014616              JUNCTION     0.11     3.72    12.37     0  07:25        3.59
  R009892              JUNCTION     0.34     2.31    10.97     0  07:27        2.31
  R009893              JUNCTION     0.15     2.11    10.84     0  07:27        2.10
  R009894              JUNCTION     0.27     2.25    10.79     0  07:27        2.25
  R009885              JUNCTION     0.05     3.74    13.48     0  07:27        2.54
  R009878              JUNCTION     0.15     0.21     6.92     0  07:33        0.21
  R009887              JUNCTION     0.03     2.57    12.75     0  07:28        2.57
  R009873              JUNCTION     0.40     3.94    11.15     0  07:30        3.91
  R009392              JUNCTION     0.26     3.87    11.64     0  07:29        3.82
  R009411              JUNCTION     0.05     3.29    15.05     0  07:25        3.30
  R009374              JUNCTION     0.05     3.10    13.38     0  07:26        2.51
  R009417              JUNCTION     0.07     3.79    14.16     0  07:26        3.21
  R009418              JUNCTION     0.07     4.43    14.50     0  07:26        2.74
  R006790              JUNCTION     0.17     1.83     9.31     0  07:35        1.80
  R006782              JUNCTION     0.25     2.12    10.09     0  07:35        2.10
  R006794              JUNCTION     0.02     1.15     9.59     0  07:34        0.92
  R006785              JUNCTION     0.21     1.94     9.86     0  07:35        1.91
  R006746              JUNCTION     0.35     2.43     8.46     0  07:35        2.42
  R006739              JUNCTION     0.05     2.56     9.90     0  07:34        1.25
  R006337              JUNCTION     0.01     0.26     9.37     0  07:30        0.26
  R006334              JUNCTION     0.01     0.24    10.43     0  07:30        0.24
  R006747              JUNCTION     0.38     2.34     8.29     0  07:35        2.33
  R006775              JUNCTION     0.00     0.00    10.09     0  00:00        0.00
  R006714              JUNCTION     0.02     1.17     9.44     0  07:34        1.06
  R006737              JUNCTION     0.29     1.93     9.75     0  07:35        1.89
  R006741              JUNCTION     0.07     2.15     9.17     0  07:32        1.57
  R006742              JUNCTION     0.09     1.75     8.59     0  07:34        1.75
  R093762              JUNCTION     0.13     3.51    11.54     0  07:26        3.45
  R017469              JUNCTION     0.05     3.81    14.55     0  07:26        3.50
  R014869              JUNCTION     0.13     3.71    12.40     0  07:25        3.61
  R014877              JUNCTION     0.15     4.74    14.47     0  07:23        4.74
  R014875              JUNCTION     0.14     4.47    13.90     0  07:25        4.45
  R014868              JUNCTION     0.13     4.02    13.18     0  07:25        3.97
  R014617              JUNCTION     0.01     1.98    12.53     0  07:28        0.38
  R014411              JUNCTION     0.43     3.74    11.63     0  07:26        3.74
  R014423              JUNCTION     0.41     3.65    12.35     0  07:25        3.65
  R014414              JUNCTION     0.11     4.87    13.25     0  07:25        2.91
  R014422              JUNCTION     0.36     2.98    12.02     0  07:27        2.85
  R014421              JUNCTION     0.21     3.71    11.82     0  07:25        3.71
  R014173              JUNCTION     0.07     3.88    14.72     0  07:25        3.34
  R014328              JUNCTION     0.06     3.05    14.59     0  07:25        3.05
  R014118              JUNCTION     0.07     3.18    14.35     0  07:25        3.18
  R009897              JUNCTION     0.24     2.21    10.58     0  07:35        2.20
  R009879              JUNCTION     0.18     2.04    10.28     0  07:35        2.02
  R009898              JUNCTION     0.23     2.12    10.42     0  07:35        2.10
  R009676              JUNCTION     0.19     2.57    11.75     0  07:23        2.57
  R009658              JUNCTION     0.25     2.24    11.21     0  07:24        2.24
  R009404              JUNCTION     0.07     4.17    14.71     0  07:25        3.37
  R009414              JUNCTION     0.05     3.35    15.06     0  07:25        3.28
  R009380              JUNCTION     0.34     4.32    11.78     0  07:29        4.18
  R009386              JUNCTION     0.12     4.59    12.64     0  07:25        3.74
  R009379              JUNCTION     0.20     4.08    11.71     0  07:29        3.99
  R009384              JUNCTION     0.24     4.23    11.75     0  07:29        4.10
  R009188              JUNCTION     0.20     3.73    11.64     0  07:26        3.66
  R007011              JUNCTION     0.28     1.90     9.21     0  07:35        1.87
  R006744              JUNCTION     0.11     1.99     8.59     0  07:34        1.99
  R006767              JUNCTION     0.32     2.53     8.61     0  07:35        2.51
  R006769              JUNCTION     0.24     1.56     8.34     0  07:32        1.47
  R006768              JUNCTION     0.07     1.24     8.21     0  07:32        1.24
  R006787              JUNCTION     0.19     1.74     9.60     0  07:35        1.69
  R006776              JUNCTION     0.14     1.76     9.13     0  07:35        1.75
  R006729              JUNCTION     0.24     2.12    10.21     0  07:35        2.10
  R006801              JUNCTION     0.03     0.19    10.36     0  07:34        0.19
  JN_352327            JUNCTION     0.58     2.15    10.91     0  07:27        2.15
  Out_U435             JUNCTION     0.12     0.75     9.55     1  09:19        0.69
  OUT_U433             JUNCTION     0.01     0.12     5.92     0  07:37        0.12
  intMN-u433           JUNCTION     0.17     0.37    10.37     0  08:33        0.37
  R341121              JUNCTION     0.47     3.85    10.91     0  07:30        3.83
  R341121_2            JUNCTION     0.00     0.03     7.18     0  07:31        0.03
  SC_PP_u435           JUNCTION     0.03     0.58     9.43     0  08:26        0.56
  PP_U433a             JUNCTION     0.01     0.13     5.93     0  07:33        0.13
  1                    JUNCTION     0.12     0.67     0.67     0  08:52        0.63
  TPG_U435             OUTFALL      0.00     0.03     6.77     0  07:33        0.03
  OUT_U433_F           OUTFALL      0.01     0.09     5.80     0  07:34        0.09
  intMN-u433_F         OUTFALL      0.12     0.23    10.13     0  08:01        0.23
  TPP_U435             OUTFALL      0.02     0.30     8.77     0  08:26        0.30
  PP_U433              STORAGE      1.55     5.10     8.09     0  07:34        5.10
  PP_U435              STORAGE      1.58     5.00    10.26     0  07:30        5.00
  
  
  *******************
  Node Inflow Summary
  *******************
  
  -------------------------------------------------------------------------------------------------
                                  Maximum  Maximum                  Lateral       Total        Flow
                                  Lateral    Total  Time of Max      Inflow      Inflow     Balance
                                   Inflow   Inflow   Occurrence      Volume      Volume       Error
  Node                 Type           CMS      CMS  days hr:min    10^6 ltr    10^6 ltr     Percent
  -------------------------------------------------------------------------------------------------
  R093130              JUNCTION     0.000    0.075     0  07:25           0      0.0725      -0.611
  RA_9142              JUNCTION     0.026    1.005     0  07:30      0.0256        2.52       0.033
  R017733              JUNCTION     0.000    0.283     0  07:27           0       0.175      -7.586
  R017735              JUNCTION     0.000    0.201     0  07:27           0      0.0263      -3.961
  R017731              JUNCTION     0.726    0.767     0  07:30       0.743       0.918       1.352
  R017726              JUNCTION     0.197    0.197     0  07:30       0.198       0.204       2.875
  R017473              JUNCTION     0.073    0.398     0  07:30      0.0718        2.19       0.054
  R014882              JUNCTION     0.000    0.086     0  07:27           0      0.0927      -0.280
  R014864              JUNCTION     0.000    0.485     0  07:25           0       0.203      -0.321
  R014878              JUNCTION     0.000    0.164     0  07:23           0       0.121      -0.239
  R014418              JUNCTION     0.000    0.130     0  07:27           0      0.0943      -0.447
  R014169              JUNCTION     0.000    0.246     0  07:25           0       0.377       1.444
  R014616              JUNCTION     0.000    0.484     0  07:25           0        0.17       2.138
  R009892              JUNCTION     0.000    0.396     0  07:23           0        4.87       0.590
  R009893              JUNCTION     0.000    0.396     0  07:23           0        4.85      -0.060
  R009894              JUNCTION     0.000    0.362     0  07:24           0        4.85       0.097
  R009885              JUNCTION     0.051    0.203     0  07:27      0.0504       0.072      -1.013
  R009878              JUNCTION     0.000    0.004     0  07:31           0      0.0105       2.094
  R009887              JUNCTION     0.000    0.122     0  07:28           0      0.0103      -1.338
  R009873              JUNCTION     0.186    0.815     0  07:26        1.74        5.63       0.193
  R009392              JUNCTION     0.000    0.641     0  07:25           0        3.23       0.076
  R009411              JUNCTION     0.050    0.068     0  07:25      0.0494      0.0499      -0.227
  R009374              JUNCTION     0.103    0.826     0  07:28       0.102           1      -1.074
  R009417              JUNCTION     0.000    0.292     0  07:26           0       0.454       0.189
  R009418              JUNCTION     0.038    0.327     0  07:26      0.0375        0.49      -0.294
  R006790              JUNCTION     0.000    0.379     0  07:30           0        4.92      -0.103
  R006782              JUNCTION     0.000    0.425     0  07:27           0        4.95       0.162
  R006794              JUNCTION     0.000    0.158     0  07:30           0       0.182      -1.495
[...]
  6200                 CONDUIT     0.575     0  07:30      2.03    5.19    1.00
  6204+4336            CONDUIT     0.288     0  07:29      1.47    1.21    1.00
  6223                 CONDUIT     0.018     0  07:35      0.44    0.17    0.25
  6224+4325            CONDUIT     0.379     0  07:30      1.44    1.35    1.00
  6225                 CONDUIT     0.158     0  07:30      1.25    0.49    0.70
  6337                 CONDUIT     0.339     0  07:31      1.25    1.08    1.00
  6704+9953            CONDUIT     0.640     0  07:25      2.26    2.25    1.00
  6732                 CONDUIT     0.306     0  07:25      2.77    1.52    1.00
  6737                 CONDUIT     0.093     0  07:25      0.84    1.40    1.00
  6738                 CONDUIT     0.292     0  07:26      1.83    1.40    1.00
  6809                 CONDUIT     0.074     0  07:25      1.04    1.62    1.00
  6862                 CONDUIT     0.809     0  07:27      2.86    0.88    1.00
  6864                 CONDUIT     0.122     0  07:28      1.19    1.39    1.00
  6867                 CONDUIT     0.389     0  07:26      1.58    2.40    1.00
  6868                 CONDUIT     0.396     0  07:23      1.83    1.77    1.00
  6870                 CONDUIT     0.367     0  07:24      1.77    4.46    1.00
  6876                 CONDUIT     0.404     0  07:24      1.52    2.48    1.00
  7123                 CONDUIT     0.325     0  07:41      1.19    0.97    1.00
  7159                 CONDUIT     0.201     0  07:27      1.36    1.93    1.00
  7161                 CONDUIT     0.303     0  07:30      1.90    0.96    1.00
  7234                 CONDUIT     0.101     0  07:24      0.96    1.12    1.00
  7282+9325            CONDUIT     0.236     0  07:24      1.57    2.15    1.00
  7471                 CONDUIT     0.485     0  07:25      1.72    1.10    1.00
  7474                 CONDUIT     0.075     0  07:25      1.66    1.97    1.00
  7476                 CONDUIT     0.140     0  07:26      2.85    2.79    1.00
  7492                 CONDUIT     0.484     0  07:25      1.75    1.10    1.00
  7515                 CONDUIT     0.086     0  07:27      1.56    0.80    1.00
  7523                 CONDUIT     0.164     0  07:23      1.48    1.42    1.00
  7526                 CONDUIT     0.244     0  07:24      2.21    2.44    1.00
  7622                 CONDUIT     0.255     0  07:30      0.90    2.30    1.00
  8246                 CONDUIT     0.073     0  07:25      1.62    1.46    1.00
  9996                 CONDUIT     0.004     0  07:33      0.67    0.00    0.05
  10296                CONDUIT     0.574     0  07:30      2.03    1.10    1.00
  11161                CONDUIT     0.079     0  07:28      0.94    0.14    1.00
  11173                CONDUIT     0.126     0  07:27      1.66    1.11    1.00
  cond_fict_1          CONDUIT     0.225     0  08:01      1.46    0.23    0.42
  cond_fict_2          CONDUIT     0.037     0  07:34      0.97    0.04    0.15
  CTPP_U435            CONDUIT     0.290     0  08:26      2.45    0.80    0.84
  DOM10324             CONDUIT     0.814     0  07:26      2.88    1.43    1.00
  fictive_conduit      CONDUIT     0.863     0  08:52     24.28    8.92    1.00
  Ref_U435             DUMMY       0.595     0  08:52
  U435_Pplu            PUMP        0.284     0  07:24              1.00
  U433_Psan_1_ou_2     PUMP        0.067     0  00:28              1.00
  U433_Pplu            PUMP        0.035     0  07:28              1.00
  U435_Psan_1_ou_2     PUMP        0.072     0  00:29              1.00
  U435_Psan_1_et_2     PUMP        0.115     0  07:23              1.00
  U435_Psan_3          PUMP        0.113     0  07:23              1.00
  U435_Psan_1_et_2_et_3 PUMP        0.151     0  07:23              1.00
  U433_Psan_1_et_2     PUMP        0.125     0  07:26              1.00
  U433_Psan_1_et_2_et_3 PUMP        0.225     0  07:27              1.00
  muret-deversoir      WEIR        0.004     0  07:30                      1.00
  U433_muret-deversoir WEIR        0.002     0  07:34                      1.00
  
  
  ***************************
  Flow Classification Summary
  ***************************
  
  -------------------------------------------------------------------------------------
                      Adjusted    ---------- Fraction of Time in Flow Class ---------- 
                       /Actual         Up    Down  Sub   Sup   Up    Down  Norm  Inlet 
  Conduit               Length    Dry  Dry   Dry   Crit  Crit  Crit  Crit  Ltd   Ctrl  
  -------------------------------------------------------------------------------------
  10139+386               1.00   0.20  0.00  0.00  0.80  0.00  0.00  0.00  0.79  0.00
  1024+9973               1.00   0.20  0.00  0.00  0.03  0.00  0.00  0.77  0.01  0.00
  346                     1.00   0.21  0.00  0.00  0.04  0.00  0.00  0.75  0.01  0.00
  348                     1.00   0.21  0.00  0.00  0.04  0.00  0.00  0.75  0.00  0.00
  361                     1.59   0.00  0.00  0.00  0.04  0.00  0.00  0.96  0.00  0.00
  368                     1.00   0.02  0.00  0.00  0.98  0.00  0.00  0.00  0.00  0.00
  370                     1.28   0.46  0.22  0.00  0.26  0.00  0.00  0.06  0.76  0.00
  372                     1.00   0.20  0.33  0.00  0.47  0.00  0.00  0.00  0.52  0.00
  391                     1.00   0.02  0.00  0.00  0.98  0.00  0.00  0.00  0.06  0.00
  398                     1.00   0.02  0.00  0.00  0.98  0.00  0.00  0.00  0.00  0.00
  400                     1.00   0.02  0.00  0.00  0.78  0.00  0.00  0.20  0.00  0.00
  868                     4.11   0.00  0.00  0.00  0.03  0.97  0.00  0.00  0.97  0.00
  890                    12.08   0.00  0.00  0.00  0.99  0.00  0.00  0.00  0.96  0.00
  908                     1.00   0.00  0.00  0.00  1.00  0.00  0.00  0.00  0.96  0.00
  912                     1.00   0.00  0.83  0.00  0.16  0.01  0.00  0.00  0.78  0.00
  941                     1.00   0.20  0.55  0.00  0.25  0.00  0.00  0.00  0.76  0.00
  953                     2.33   0.20  0.00  0.00  0.02  0.00  0.00  0.79  0.00  0.00
  1029                    1.00   0.01  0.00  0.00  0.99  0.00  0.00  0.00  0.81  0.00
  1031                    2.14   0.02  0.00  0.00  0.90  0.07  0.00  0.01  0.89  0.00
  1038                    1.00   0.01  0.00  0.00  0.03  0.00  0.95  0.00  0.00  0.00
  1057                    1.00   0.20  0.00  0.00  0.02  0.00  0.00  0.78  0.00  0.00
  1058                    1.03   0.02  0.00  0.00  0.98  0.00  0.00  0.00  0.94  0.00
  1107                    3.31   0.21  0.00  0.00  0.00  0.00  0.00  0.79  0.00  0.00
  1267                    1.00   0.20  0.00  0.00  0.02  0.00  0.00  0.78  0.01  0.00
  1294                    1.00   0.20  0.00  0.00  0.08  0.00  0.00  0.72  0.78  0.00
  1320                    1.00   0.20  0.00  0.00  0.01  0.00  0.00  0.79  0.00  0.00
  1439                    1.00   0.20  0.00  0.00  0.80  0.00  0.00  0.00  0.60  0.00
  1441                    1.00   0.20  0.00  0.00  0.07  0.00  0.00  0.73  0.04  0.00
  1506                    1.00   0.20  0.00  0.00  0.02  0.00  0.00  0.78  0.01  0.00
  1645                    1.00   0.21  0.75  0.00  0.04  0.00  0.00  0.00  0.79  0.00
  1664                    1.00   0.21  0.00  0.00  0.02  0.00  0.00  0.77  0.00  0.00
  1712                    1.00   0.20  0.00  0.00  0.03  0.00  0.00  0.78  0.00  0.00
  1722                    1.00   0.20  0.00  0.00  0.03  0.00  0.00  0.78  0.00  0.00
  1724                    1.00   0.20  0.00  0.00  0.03  0.00  0.00  0.78  0.00  0.00
  395+10292               1.00   0.02  0.00  0.00  0.98  0.00  0.00  0.00  0.93  0.00
  4141+892                2.37   0.00  0.00  0.00  0.04  0.00  0.95  0.00  0.00  0.00
  4312                    1.64   0.21  0.74  0.00  0.05  0.00  0.00  0.00  0.75  0.00
  5401                    1.00   0.00  0.00  0.00  1.00  0.00  0.00  0.00  0.00  0.00
  5423                    1.94   0.00  0.00  0.00  0.03  0.00  0.00  0.97  0.00  0.00
  6173                    1.00   0.96  0.04  0.00  0.00  0.00  0.00  0.00  0.00  0.00
  6178                    1.00   0.21  0.00  0.00  0.05  0.00  0.00  0.75  0.01  0.00
  6184                    1.00   0.20  0.01  0.00  0.80  0.00  0.00  0.00  0.10  0.00
  6187                    1.00   0.20  0.00  0.00  0.05  0.00  0.00  0.74  0.00  0.00
  6199                    1.00   0.00  0.03  0.00  0.05  0.56  0.00  0.37  0.55  0.00
  6200                    2.29   0.00  0.00  0.00  0.91  0.00  0.00  0.09  0.00  0.00
  6204+4336               1.00   0.20  0.00  0.00  0.02  0.00  0.00  0.78  0.01  0.00
  6223                    1.00   0.20  0.00  0.00  0.00  0.00  0.00  0.80  0.00  0.00
  6224+4325               1.00   0.02  0.00  0.00  0.03  0.00  0.00  0.94  0.00  0.00
  6225                    1.00   0.20  0.00  0.00  0.03  0.01  0.00  0.76  0.03  0.00
  6337                    1.31   0.02  0.00  0.00  0.97  0.00  0.00  0.00  0.00  0.00
  6704+9953               1.00   0.00  0.00  0.00  0.44  0.56  0.00  0.00  0.00  0.00
  6732                    6.16   0.20  0.00  0.00  0.03  0.00  0.00  0.77  0.00  0.00
  6737                    1.00   0.20  0.69  0.00  0.11  0.00  0.00  0.00  0.78  0.00
  6738                    1.05   0.75  0.04  0.00  0.21  0.01  0.00  0.00  0.77  0.00
  6809                    1.00   0.00  0.82  0.00  0.18  0.00  0.00  0.00  0.77  0.00
  6862                    6.00   0.00  0.00  0.00  0.03  0.00  0.00  0.96  0.00  0.00
  6864                    1.00   0.20  0.00  0.00  0.02  0.00  0.00  0.77  0.01  0.00
  6867                    1.00   0.02  0.00  0.00  0.98  0.00  0.00  0.00  0.00  0.00
  6868                    1.00   0.01  0.00  0.00  0.98  0.00  0.00  0.00  0.95  0.00
  6870                    1.00   0.02  0.00  0.00  0.04  0.00  0.00  0.94  0.00  0.00
  6876                    1.00   0.02  0.00  0.00  0.98  0.00  0.00  0.00  0.07  0.00
  7123                    1.00   0.00  0.00  0.00  0.05  0.00  0.95  0.00  0.00  0.00
  7159                    1.00   0.20  0.00  0.00  0.06  0.00  0.00  0.74  0.78  0.00
  7161                    1.00   0.20  0.00  0.00  0.04  0.00  0.00  0.77  0.02  0.00
  7234                    1.00   0.20  0.00  0.00  0.04  0.00  0.00  0.77  0.02  0.00
  7282+9325               1.00   0.20  0.00  0.00  0.03  0.00  0.00  0.78  0.00  0.00
  7471                    1.00   0.01  0.89  0.00  0.10  0.00  0.00  0.00  0.77  0.00
  7474                    1.00   0.20  0.01  0.00  0.79  0.00  0.00  0.00  0.77  0.00
  7476                    1.00   0.21  0.72  0.00  0.02  0.00  0.06  0.00  0.00  0.00
  7492                    1.06   0.22  0.02  0.00  0.76  0.00  0.00  0.00  0.77  0.00
  7515                    3.90   0.96  0.03  0.00  0.01  0.00  0.00  0.00  0.78  0.00
  7523                    1.00   0.20  0.00  0.00  0.04  0.00  0.00  0.75  0.02  0.00
  7526                    1.00   0.20  0.00  0.00  0.03  0.00  0.00  0.78  0.00  0.00
  7622                    1.00   0.00  0.00  0.00  0.98  0.00  0.02  0.00  0.20  0.00
  8246                    1.00   0.20  0.00  0.00  0.03  0.00  0.00  0.77  0.01  0.00
  9996                    5.43   0.21  0.00  0.00  0.76  0.03  0.00  0.00  0.00  0.00
  10296                   6.22   0.00  0.00  0.00  1.00  0.00  0.00  0.00  0.00  0.00
  11161                   4.39   0.21  0.75  0.00  0.04  0.00  0.00  0.00  0.78  0.00
  11173                   1.00   0.21  0.00  0.00  0.79  0.00  0.00  0.00  0.00  0.00
  cond_fict_1             5.11   0.01  0.00  0.00  0.17  0.82  0.00  0.00  0.01  0.00
  cond_fict_2             5.11   0.21  0.00  0.00  0.74  0.05  0.00  0.00  0.00  0.00
  CTPP_U435               1.86   0.21  0.00  0.00  0.79  0.01  0.00  0.00  0.00  0.00
  DOM10324                2.93   0.00  0.00  0.00  0.04  0.00  0.96  0.00  0.00  0.00
  fictive_conduit         3.08   0.02  0.00  0.00  0.00  0.00  0.00  0.98  0.00  0.00
  
  
  *************************
  Conduit Surcharge Summary
  *************************
  
  ----------------------------------------------------------------------------
                                                           Hours        Hours 
                         --------- Hours Full --------   Above Full   Capacity
  Conduit                Both Ends  Upstream  Dnstream   Normal Flow   Limited
  ----------------------------------------------------------------------------
  10139+386                   0.10      0.10      0.26      0.01         0.01
  1024+9973                   0.66      0.66      0.89      0.01         0.01
  346                         1.14      1.14      1.24      0.01         0.01
  348                         1.35      1.35      1.38      0.06         0.01
  361                         1.48      1.51      1.48      1.39         1.47
  368                         0.83      0.93      0.83      1.46         0.83
  370                         1.21      1.21      1.51      0.01         0.01
  391                         0.83      0.83      0.89      0.37         0.39
  398                         0.68      0.68      0.93      1.13         0.01
  400                         0.80      0.81      0.83      0.42         0.43
  868                         0.90      0.90      0.95      0.01         0.02
  890                         0.96      0.96      1.03      0.01         0.02
  908                         1.00      1.00      1.13      0.65         0.72
  912                         0.53      0.53      0.89      0.01         0.01
  941                         0.65      0.67      0.67      0.38         0.36
  953                         0.40      0.40      0.40      0.06         0.14
  1029                        0.65      0.65      0.77      0.29         0.33
  1031                        0.63      0.63      0.82      0.01         0.02
  1038                        0.60      0.60      1.41      0.50         0.01
  1057                        0.67      0.67      0.75      0.01         0.01
  1058                        0.59      0.59      0.86      0.01         0.01
  1267                        0.31      0.31      0.50      0.01         0.01
  1294                        0.19      0.19      0.22      0.06         0.08
  1320                        0.23      0.24      0.24      0.07         0.06
  1439                        0.58      0.58      0.64      0.18         0.22
  1441                        0.56      0.59      0.56      0.57         0.54
  1506                        0.27      0.27      0.52      0.08         0.09
  1645                        0.12      0.12      0.31      0.01         0.01
  1664                        0.74      0.74      0.80      0.01         0.01
  1712                        0.85      0.86      0.88      0.54         0.53
  1722                        0.80      0.81      0.84      0.58         0.57
  1724                        0.85      0.89      0.86      0.58         0.54
  395+10292                   0.99      0.99      1.08      0.01         0.01
  4141+892                    0.84      0.84      0.86      0.01         0.01
  5401                        0.88      0.89      0.89      0.46         0.50
  5423                        0.88      0.89      0.88      0.23         0.14
  6178                        1.25      1.25      1.35      0.04         0.01
  6184                        1.21      1.21      1.39      0.01         0.01
  6187                        1.40      1.40      1.49      0.01         0.01
  6199                        0.98      0.98      1.46      0.01         0.01
  6200                        1.49      1.51      1.49      1.83         1.49
  6204+4336                   0.22      0.26      0.32      0.08         0.01
  6224+4325                   0.66      0.68      0.91      0.09         0.08
  6225                        0.01      0.01      0.09      0.01         0.01
  6337                        0.98      0.98      1.08      0.02         0.01
  6704+9953                   0.95      0.96      0.96      0.08         0.15
  6732                        0.84      0.84      0.86      0.01         0.01
  6737                        0.42      0.42      0.48      0.01         0.01
  6738                        0.64      0.64      0.67      0.04         0.29
  6809                        0.98      0.98      1.05      0.02         0.01
  6862                        0.85      0.89      0.85      0.01         0.79
  6864                        0.53      0.53      0.66      0.02         0.01
  6867                        0.64      0.72      0.64      1.05         0.64
  6868                        0.68      0.68      0.97      0.22         0.30
  6870                        0.66      0.90      0.66      1.47         0.65
  6876                        0.72      0.77      0.72      1.00         0.72
  7123                        0.87      0.87      1.01      0.01         0.01
  7159                        0.16      0.16      0.19      0.01         0.01
  7161                        0.47      0.47      0.92      0.01         0.01
  7234                        0.47      0.47      0.60      0.01         0.01
  7282+9325                   0.54      0.57      0.56      0.42         0.38
  7471                        0.84      0.84      0.93      0.01         0.01
  7474                        0.80      0.80      0.85      0.17         0.01
  7476                        0.75      0.75     28.57      0.47         0.47
  7492                        0.81      0.81      0.84      0.01         0.01
  7515                        0.01      0.01      0.12      0.01         0.01
  7523                        0.76      0.76      0.80      0.04         0.01
  7526                        0.83      0.85      0.85      0.60         0.58
  7622                        0.89      0.90      0.89      0.61         0.57
  8246                        0.85      0.85      1.00      0.01         0.01
  10296                       1.50      1.51      1.51      0.06         0.42
  11161                       0.03      0.03     28.54      0.01         0.01
  11173                       0.90      0.90     28.54      0.01         0.01
  CTPP_U435                   0.01      1.00      0.01      0.01         0.01
  DOM10324                    0.86      0.86      1.13      0.09         0.01
  fictive_conduit             0.01      1.42      0.13      1.63         0.01
  
  
  ***************
  Pumping Summary
  ***************
  
  ---------------------------------------------------------------------------------------------------------
                                                  Min       Avg       Max     Total     Power    % Time Off
                        Percent   Number of      Flow      Flow      Flow    Volume     Usage    Pump Curve
  Pump                 Utilized   Start-Ups       CMS       CMS       CMS  10^6 ltr     Kw-hr    Low   High
  ---------------------------------------------------------------------------------------------------------
  U435_Pplu                2.86           2      0.00      0.28      0.28     1.052      2.65    0.0    0.0
  U433_Psan_1_ou_2        48.87          37      0.00      0.07      0.07     4.243     66.44    0.0    0.0
  U433_Pplu                4.60           1      0.00      0.04      0.04     0.209      0.95    0.0    0.0
  U435_Psan_1_ou_2        40.25         101      0.00      0.07      0.07     3.756     23.60    0.0    0.0
  U435_Psan_1_et_2         0.02           1      0.00      0.12      0.12     0.003      0.01    0.0    0.0
  U435_Psan_3              0.01           1      0.00      0.11      0.11     0.001      0.00    0.0    0.0
  U435_Psan_1_et_2_et_3     3.81           1      0.00      0.15      0.15     0.746      2.52    0.0    0.0
  U433_Psan_1_et_2        22.10          23      0.00      0.12      0.12     3.580     59.49    0.0    0.0
  U433_Psan_1_et_2_et_3     5.11           1      0.00      0.22      0.23     1.490     12.62    0.0    0.0
  

  Analysis begun on:  Tue Jun 23 20:33:24 2026
  Analysis ended on:  Tue Jun 23 20:33:24 2026
  Total elapsed time: < 1 sec