
  EPA STORM WATER MANAGEMENT MODEL - VERSION 5.2 (Build 5.2.4)
  ------------------------------------------------------------

    Input and Output FilesSW 1 0 20 
  WARNING 04: minimum elevation drop used for Conduit pipe1b
  WARNING 04: minimum elevation drop used for Conduit pipe2b
  WARNING 04: minimum elevation drop used for Conduit pipe3b
  WARNING 04: minimum elevation drop used for Conduit pipe4b
  WARNING 04: minimum elevation drop used for Conduit pipe5b
  WARNING 04: minimum elevation drop used for Conduit pipe6b
  WARNING 04: minimum elevation drop used for Conduit pipe7b
  WARNING 04: minimum elevation drop used for Conduit pipe8b
  WARNING 04: minimum elevation drop used for Conduit pipe9b
  WARNING 04: minimum elevation drop used for Conduit outletb
  
  *************
  Element Count
  *************
  Number of rain gages ...... 0
  Number of subcatchments ... 0
  Number of nodes ........... 33
  Number of links ........... 30
  Number of pollutants ...... 0
  Number of land uses ....... 0
  
  
  ************
  Node Summary
  ************
                                           Invert      Max.    Ponded    External
  Name                 Type                 Elev.     Depth      Area    Inflow  
  -------------------------------------------------------------------------------
  Inflow               JUNCTION             10.00     10.00       0.0    Yes
  Inflowa              JUNCTION             10.00     10.00       0.0    Yes
  Inflowb              JUNCTION             10.00     10.00       0.0    Yes
  mid1                 JUNCTION             10.00     10.00       0.0
  mid1a                JUNCTION             10.00     10.00       0.0
  mid1b                JUNCTION             10.00     10.00       0.0
  mid2                 JUNCTION             10.00     10.00       0.0
  mid2a                JUNCTION             10.00     10.00       0.0
  mid2b                JUNCTION             10.00     10.00       0.0
  mid3                 JUNCTION             10.00     10.00       0.0
  mid3a                JUNCTION             10.00     10.00       0.0
  mid3b                JUNCTION             10.00     10.00       0.0
  mid4                 JUNCTION             10.00     10.00       0.0
  mid4a                JUNCTION             10.00     10.00       0.0
  mid4b                JUNCTION             10.00     10.00       0.0
  mid5                 JUNCTION             10.00     10.00       0.0
  mid5a                JUNCTION             10.00     10.00       0.0
  mid5b                JUNCTION             10.00     10.00       0.0
  mid6                 JUNCTION             10.00     10.00       0.0
  mid6a                JUNCTION             10.00     10.00       0.0
  mid6b                JUNCTION             10.00     10.00       0.0
  mid7                 JUNCTION             10.00     10.00       0.0
  mid7a                JUNCTION             10.00     10.00       0.0
  mid7b                JUNCTION             10.00     10.00       0.0
  mid8                 JUNCTION             10.00     10.00       0.0
  mid8a                JUNCTION             10.00     10.00       0.0
  mid8b                JUNCTION             10.00     10.00       0.0
  mid9                 JUNCTION             10.00     10.00       0.0
  mid9a                JUNCTION             10.00     10.00       0.0
  mid9b                JUNCTION             10.00     10.00       0.0
  Outlet               OUTFALL              10.00      5.00       0.0
  Outleta              OUTFALL              10.00      2.00       0.0
  Outletb              OUTFALL              10.00      2.00       0.0
  
  
  ************
  Link Summary
  ************
  Name             From Node        To Node          Type            Length    %Slope Roughness
  ---------------------------------------------------------------------------------------------
  pipe1            Inflow           mid1             CONDUIT          100.0   -3.0014    0.0110
  pipe2            mid1             mid2             CONDUIT          100.0   -3.0014    0.0110
  pipe3            mid2             mid3             CONDUIT          100.0   -3.0014    0.0110
  pipe4            mid3             mid4             CONDUIT          100.0   -3.0014    0.0110
  pipe5            mid4             mid5             CONDUIT          100.0   -3.0014    0.0110
  pipe6            mid5             mid6             CONDUIT          100.0   -3.0014    0.0110
  pipe7            mid6             mid7             CONDUIT          100.0   -3.0014    0.0110
  pipe8            mid7             mid8             CONDUIT          100.0   -3.0014    0.0110
  pipe9            mid8             mid9             CONDUIT          100.0   -3.0014    0.0110
  outlet           mid9             Outlet           CONDUIT          100.0   -3.0014    0.0110
  pipe1a           Inflowa          mid1a            CONDUIT          100.0    3.0014    0.0110
  pipe2a           mid1a            mid2a            CONDUIT          100.0    3.0014    0.0110
  pipe3a           mid2a            mid3a            CONDUIT          100.0    3.0014    0.0110
  pipe4a           mid3a            mid4a            CONDUIT          100.0    3.0014    0.0110
  pipe5a           mid4a            mid5a            CONDUIT          100.0    3.0014    0.0110
  pipe6a           mid5a            mid6a            CONDUIT          100.0    3.0014    0.0110
  pipe7a           mid6a            mid7a            CONDUIT          100.0    3.0014    0.0110
  pipe8a           mid7a            mid8a            CONDUIT          100.0    3.0014    0.0110
  pipe9a           mid8a            mid9a            CONDUIT          100.0    3.0014    0.0110
  outleta          mid9a            Outleta          CONDUIT          100.0    3.0014    0.0110
  pipe1b           Inflowb          mid1b            CONDUIT          100.0    0.0010    0.0110
  pipe2b           mid1b            mid2b            CONDUIT          100.0    0.0010    0.0110
  pipe3b           mid2b            mid3b            CONDUIT          100.0    0.0010    0.0110
  pipe4b           mid3b            mid4b            CONDUIT          100.0    0.0010    0.0110
  pipe5b           mid4b            mid5b            CONDUIT          100.0    0.0010    0.0110
  pipe6b           mid5b            mid6b            CONDUIT          100.0    0.0010    0.0110
  pipe7b           mid6b            mid7b            CONDUIT          100.0    0.0010    0.0110
  pipe8b           mid7b            mid8b            CONDUIT          100.0    0.0010    0.0110
  pipe9b           mid8b            mid9b            CONDUIT          100.0    0.0010    0.0110
  outletb          mid9b            Outletb          CONDUIT          100.0    0.0010    0.0110
  
  
  *********************
  Cross Section Summary
  *********************
                                        Full     Full     Hyd.     Max.   No. of     Full
  Conduit          Shape               Depth     Area     Rad.    Width  Barrels     Flow
  ---------------------------------------------------------------------------------------
  pipe1            CIRCULAR             2.00     3.14     0.50     2.00        1    46.32
  pipe2            CIRCULAR             2.00     3.14     0.50     2.00        1    46.32
  pipe3            CIRCULAR             2.00     3.14     0.50     2.00        1    46.32
  pipe4            CIRCULAR             2.00     3.14     0.50     2.00        1    46.32
  pipe5            CIRCULAR             2.00     3.14     0.50     2.00        1    46.32
  pipe6            CIRCULAR             2.00     3.14     0.50     2.00        1    46.32
  pipe7            CIRCULAR             2.00     3.14     0.50     2.00        1    46.32
  pipe8            CIRCULAR             2.00     3.14     0.50     2.00        1    46.32
  pipe9            CIRCULAR             2.00     3.14     0.50     2.00        1    46.32
  outlet           CIRCULAR             2.00     3.14     0.50     2.00        1    46.32
  pipe1a           CIRCULAR             2.00     3.14     0.50     2.00        1    46.32
  pipe2a           CIRCULAR             2.00     3.14     0.50     2.00        1    46.32
  pipe3a           CIRCULAR             2.00     3.14     0.50     2.00        1    46.32
  pipe4a           CIRCULAR             2.00     3.14     0.50     2.00        1    46.32
  pipe5a           CIRCULAR             2.00     3.14     0.50     2.00        1    46.32
  pipe6a           CIRCULAR             2.00     3.14     0.50     2.00        1    46.32
  pipe7a           CIRCULAR             2.00     3.14     0.50     2.00        1    46.32
  pipe8a           CIRCULAR             2.00     3.14     0.50     2.00        1    46.32
  pipe9a           CIRCULAR             2.00     3.14     0.50     2.00        1    46.32
  outleta          CIRCULAR             2.00     3.14     0.50     2.00        1    46.32
  pipe1b           CIRCULAR             2.00     3.14     0.50     2.00        1     0.85
  pipe2b           CIRCULAR             2.00     3.14     0.50     2.00        1     0.85
  pipe3b           CIRCULAR             2.00     3.14     0.50     2.00        1     0.85
  pipe4b           CIRCULAR             2.00     3.14     0.50     2.00        1     0.85
  pipe5b           CIRCULAR             2.00     3.14     0.50     2.00        1     0.85
  pipe6b           CIRCULAR             2.00     3.14     0.50     2.00        1     0.85
  pipe7b           CIRCULAR             2.00     3.14     0.50     2.00        1     0.85
  pipe8b           CIRCULAR             2.00     3.14     0.50     2.00        1     0.85
  pipe9b           CIRCULAR             2.00     3.14     0.50     2.00        1     0.85
  outletb          CIRCULAR             2.00     3.14     0.50     2.00        1     0.85
  
  
  ****************
  Analysis Options
  ****************
  Flow Units ............... CFS
  Process Models:
    Rainfall/Runoff ........ NO
    RDII ................... NO
    Snowmelt ............... NO
    Groundwater ............ NO
    Flow Routing ........... YES
    Ponding Allowed ........ NO
    Water Quality .......... NO
  Flow Routing Method ...... DYNWAVE
  Surcharge Method ......... EXTRAN
  Starting Date ............ 02/22/2002 00:00:00
  Ending Date .............. 02/22/2002 10:00:00
  Antecedent Dry Days ...... 0.0
  Report Time Step ......... 00:00:01
  Routing Time Step ........ 0.10 sec
  Variable Time Step ....... YES
  Maximum Trials ........... 8
  Number of Threads ........ 1
  Head Tolerance ........... 0.001000 ft
  
  
  **************************        Volume        Volume
  Flow Routing Continuity        acre-feet      10^6 gal
  **************************     ---------     ---------
  Dry Weather Inflow .......         0.000         0.000
  Wet Weather Inflow .......         0.000         0.000
  Groundwater Inflow .......         0.000         0.000
  RDII Inflow ..............         0.000         0.000
  External Inflow ..........         0.420         0.137
  External Outflow .........         0.335         0.109
  Flooding Loss ............         0.004         0.001
  Evaporation Loss .........         0.000         0.000
  Exfiltration Loss ........         0.000         0.000
  Initial Stored Volume ....         0.000         0.000
  Final Stored Volume ......         0.074         0.024
  Continuity Error (%) .....         1.544
  
  
  *************************
  Highest Continuity Errors
  *************************
  Node mid8 (-9.26%)
  Node mid1 (7.65%)
  Node mid2 (6.72%)
  Node mid3 (5.51%)
  Node mid9a (5.43%)
  
  
  ***************************
  Time-Step Critical Elements
  ***************************
  None
  
  
  ********************************
  Highest Flow Instability Indexes
  ********************************
  Link outleta (1)
  
  
  *********************************
  Most Frequent Nonconverging Nodes
  *********************************
  Node Outlet (72.16%)
  Node Outleta (72.16%)
  Node Outletb (72.16%)
  Node Inflow (72.16%)
  Node mid2 (0.00%)
  
  
  *************************
  Routing Time Step Summary
  *************************
  Minimum Time Step           :     0.10 sec
  Average Time Step           :     0.10 sec
  Maximum Time Step           :     0.10 sec
  % of Time in Steady State   :     0.00
  Average Iterations per Step :     6.37
  % of Steps Not Converging   :    72.16
  Time Step Frequencies       :
      0.100 -  0.040 sec      :   100.00 %
      0.040 -  0.016 sec      :     0.00 %
      0.016 -  0.006 sec      :     0.00 %
      0.006 -  0.003 sec      :     0.00 %
      0.003 -  0.001 sec      :     0.00 %
  
  
  ******************
  Node Depth Summary
  ******************
  
  ---------------------------------------------------------------------------------
                                 Average  Maximum  Maximum  Time of Max    Reported
                                   Depth    Depth      HGL   Occurrence   Max Depth
  Node                 Type         Feet     Feet     Feet  days hr:min        Feet
  ---------------------------------------------------------------------------------
  Inflow               JUNCTION     3.08    10.00    20.00     0  00:06       10.00
  Inflowa              JUNCTION     3.04     3.62    13.62     0  08:07        3.61
  Inflowb              JUNCTION     0.39     1.46    11.46     0  05:07        1.45
  mid1                 JUNCTION     3.00     4.13    14.13     0  03:07        4.13
  mid1a                JUNCTION     3.04     3.76    13.76     0  05:37        3.76
  mid1b                JUNCTION     0.38     1.22    11.22     0  05:07        1.22
  mid2                 JUNCTION     2.90     3.78    13.78     0  03:37        3.78
  mid2a                JUNCTION     2.92     3.80    13.80     0  06:07        3.80
  mid2b                JUNCTION     0.36     0.86    10.86     0  05:07        0.86
  mid3                 JUNCTION     2.75     3.61    13.61     0  03:37        3.61
  mid3a                JUNCTION     2.80     3.76    13.76     0  05:37        3.76
  mid3b                JUNCTION     0.35     0.68    10.68     0  01:07        0.68
  mid4                 JUNCTION     2.64     3.49    13.49     0  03:37        3.49
  mid4a                JUNCTION     2.70     3.72    13.72     0  06:07        3.72
  mid4b                JUNCTION     0.33     0.58    10.58     0  09:08        0.58
  mid5                 JUNCTION     2.55     3.41    13.41     0  03:38        3.41
  mid5a                JUNCTION     2.57     3.67    13.67     0  06:07        3.67
  mid5b                JUNCTION     0.32     0.51    10.51     0  02:39        0.51
  mid6                 JUNCTION     2.42     3.35    13.35     0  03:38        3.35
  mid6a                JUNCTION     2.45     3.61    13.61     0  05:37        3.61
  mid6b                JUNCTION     0.31     0.47    10.47     0  06:10        0.47
  mid7                 JUNCTION     2.31     3.31    13.31     0  03:38        3.31
  mid7a                JUNCTION     2.33     3.56    13.56     0  05:38        3.56
  mid7b                JUNCTION     0.29     0.43    10.43     0  06:10        0.43
  mid8                 JUNCTION     2.23     3.28    13.28     0  03:39        3.28
  mid8a                JUNCTION     2.22     3.52    13.52     0  05:38        3.52
  mid8b                JUNCTION     0.27     0.39    10.39     0  09:41        0.39
  mid9                 JUNCTION     2.10     3.25    13.25     0  03:39        3.25
  mid9a                JUNCTION     2.10     3.40    13.40     0  05:38        3.40
  mid9b                JUNCTION     0.25     0.35    10.35     0  09:42        0.35
  Outlet               OUTFALL      0.00     0.00    10.00     0  00:00        0.00
  Outleta              OUTFALL      0.04     0.40    10.40     0  05:38        0.40
  Outletb              OUTFALL      0.13     0.20    10.20     0  09:42        0.20
  
  
  *******************
  Node Inflow Summary
  *******************
  
  -------------------------------------------------------------------------------------------------
                                  Maximum  Maximum                  Lateral       Total        Flow
                                  Lateral    Total  Time of Max      Inflow      Inflow     Balance
                                   Inflow   Inflow   Occurrence      Volume      Volume       Error
  Node                 Type           CFS      CFS  days hr:min    10^6 gal    10^6 gal     Percent
  -------------------------------------------------------------------------------------------------
  Inflow               JUNCTION      9.98     9.98     0  01:07      0.0456      0.0493       2.313
  Inflowa              JUNCTION      9.98     9.98     0  01:07      0.0456      0.0506       0.436
  Inflowb              JUNCTION      9.98     9.98     0  01:07      0.0456      0.0457      -0.768
  mid1                 JUNCTION      0.00     9.98     0  00:07           0      0.0534       8.281
  mid1a                JUNCTION      0.00     9.52     0  08:07           0      0.0536       3.105
  mid1b                JUNCTION      0.00     9.40     0  06:37           0       0.046       0.425
  mid2                 JUNCTION      0.00     6.94     0  01:07           0      0.0496       7.201
  mid2a                JUNCTION      0.00    10.35     0  01:07           0       0.049       3.095
  mid2b                JUNCTION      0.00     4.91     0  00:07           0      0.0458       0.790
  mid3                 JUNCTION      0.00     4.56     0  03:37           0      0.0431       5.834
  mid3a                JUNCTION      0.00     9.58     0  01:37           0      0.0454       3.380
  mid3b                JUNCTION      0.00     2.60     0  01:07           0      0.0454       0.663
  mid4                 JUNCTION      0.00     3.45     0  03:37           0      0.0391       4.741
  mid4a                JUNCTION      0.00     8.63     0  05:37           0      0.0424       3.800
  mid4b                JUNCTION      0.00     1.58     0  01:08           0      0.0451       0.535
  mid5                 JUNCTION      0.00     2.71     0  03:38           0      0.0353       2.799
  mid5a                JUNCTION      0.00     8.12     0  02:07           0        0.04       4.336
  mid5b                JUNCTION      0.00     1.15     0  02:08           0      0.0449       0.490
  mid6                 JUNCTION      0.00     2.19     0  03:38           0      0.0325       1.397
  mid6a                JUNCTION      0.00     7.42     0  02:37           0      0.0379       4.451
  mid6b                JUNCTION      0.00     0.91     0  02:39           0      0.0447       0.460
  mid7                 JUNCTION      0.00     1.81     0  03:38           0      0.0311      -1.758
  mid7a                JUNCTION      0.00     6.70     0  03:08           0      0.0361       4.710
  mid7b                JUNCTION      0.00     0.73     0  06:10           0      0.0445       0.428
  mid8                 JUNCTION      0.00     1.51     0  03:39           0      0.0312      -8.478
  mid8a                JUNCTION      0.00     5.99     0  05:38           0      0.0344       5.084
  mid8b                JUNCTION      0.00     0.59     0  06:11           0      0.0443       0.395
  mid9                 JUNCTION      0.00     1.27     0  03:39           0      0.0338      -2.030
  mid9a                JUNCTION      0.00     5.40     0  05:38           0      0.0327       5.742
  mid9b                JUNCTION      0.00     0.47     0  09:41           0      0.0441       0.419
  Outlet               OUTFALL       0.00     1.06     0  03:39           0      0.0344       0.000
  Outleta              OUTFALL       0.00     4.06     0  05:38           0      0.0309       0.000
  Outletb              OUTFALL       0.00     0.36     0  09:42           0      0.0439       0.000
  
  
  **********************
  Node Surcharge Summary
  **********************
  
  Surcharging occurs when water rises above the top of the highest conduit.
  ---------------------------------------------------------------------
                                               Max. Height   Min. Depth
                                   Hours       Above Crown    Below Rim
  Node                 Type      Surcharged           Feet         Feet
  ---------------------------------------------------------------------
  Inflow               JUNCTION        9.84          8.000        0.000
  
  
  *********************
  Node Flooding Summary
  *********************
  
  Flooding refers to all water that overflows a node, whether it ponds or not.
  --------------------------------------------------------------------------
                                                             Total   Maximum
                                 Maximum   Time of Max       Flood    Ponded
                        Hours       Rate    Occurrence      Volume     Depth
  Node                 Flooded       CFS   days hr:min    10^6 gal      Feet
  --------------------------------------------------------------------------
  Inflow                  0.01      8.90      0  00:06       0.001     0.000
  
  
  ***********************
  Outfall Loading Summary
  ***********************
  
  -----------------------------------------------------------
                         Flow       Avg       Max       Total
                         Freq      Flow      Flow      Volume
  Outfall Node           Pcnt       CFS       CFS    10^6 gal
  -----------------------------------------------------------
  Outlet                67.43      0.19      1.06       0.034
  Outleta               67.69      0.17      4.06       0.031
  Outletb               97.92      0.17      0.36       0.044
  -----------------------------------------------------------
  System                77.68      0.53      4.20       0.109
  
  
  ********************
  Link Flow Summary
  ********************
  
  -----------------------------------------------------------------------------
                                 Maximum  Time of Max   Maximum    Max/    Max/
                                  |Flow|   Occurrence   |Veloc|    Full    Full
  Link                 Type          CFS  days hr:min    ft/sec    Flow   Depth
  -----------------------------------------------------------------------------
  pipe1                CONDUIT      9.98     0  00:07      4.56    0.22    0.78
  pipe2                CONDUIT      7.72     0  01:06      3.65    0.17    0.70
  pipe3                CONDUIT      4.56     0  03:37      2.19    0.10    0.65
  pipe4                CONDUIT      3.45     0  03:37      1.74    0.07    0.62
  pipe5                CONDUIT      2.71     0  03:38      1.40    0.06    0.60
  pipe6                CONDUIT      2.19     0  03:38      1.16    0.05    0.59
  pipe7                CONDUIT      1.81     0  03:38      0.97    0.04    0.58
  pipe8                CONDUIT      1.51     0  03:39      0.83    0.03    0.57
  pipe9                CONDUIT      1.27     0  03:39      0.70    0.03    0.56
  outlet               CONDUIT      1.06     0  03:39      0.60    0.02    0.55
  pipe1a               CONDUIT      9.52     0  08:07      9.73    0.21    0.65
  pipe2a               CONDUIT     10.35     0  01:07      6.79    0.22    0.69
  pipe3a               CONDUIT      9.58     0  01:37      8.61    0.21    0.70
  pipe4a               CONDUIT      8.63     0  05:37      9.49    0.19    0.69
  pipe5a               CONDUIT      8.12     0  02:07      9.86    0.18    0.68
  pipe6a               CONDUIT      7.42     0  02:37      4.33    0.16    0.67
  pipe7a               CONDUIT      6.70     0  03:08      6.28    0.14    0.65
  pipe8a               CONDUIT      5.99     0  05:38      8.00    0.13    0.64
  pipe9a               CONDUIT      5.40     0  05:38      8.84    0.12    0.63
  outleta              CONDUIT      4.06     0  05:38      9.08    0.09    0.20
  pipe1b               CONDUIT      9.40     0  06:37      4.78   11.12    0.65
  pipe2b               CONDUIT      4.91     0  00:07      4.55    5.81    0.43
  pipe3b               CONDUIT      2.60     0  01:07      3.58    3.07    0.34
  pipe4b               CONDUIT      1.58     0  01:08      2.93    1.87    0.29
  pipe5b               CONDUIT      1.15     0  02:08      2.43    1.36    0.26
  pipe6b               CONDUIT      0.91     0  02:39      2.08    1.08    0.24
  pipe7b               CONDUIT      0.73     0  06:10      1.75    0.87    0.22
  pipe8b               CONDUIT      0.59     0  06:11      1.45    0.70    0.20
  pipe9b               CONDUIT      0.47     0  09:41      1.29    0.56    0.18
  outletb              CONDUIT      0.36     0  09:42      1.40    0.43    0.14
  
  
  ***************************
  Flow Classification Summary
  ***************************
  
  -------------------------------------------------------------------------------------
                      Adjusted    ---------- Fraction of Time in Flow Class ---------- 
                       /Actual         Up    Down  Sub   Sup   Up    Down  Norm  Inlet 
  Conduit               Length    Dry  Dry   Dry   Crit  Crit  Crit  Crit  Ltd   Ctrl  
  -------------------------------------------------------------------------------------
  pipe1                   1.00   0.01  0.05  0.00  0.92  0.00  0.01  0.00  0.00  0.00
  pipe2                   1.00   0.01  0.05  0.00  0.87  0.00  0.07  0.00  0.00  0.00
  pipe3                   1.00   0.06  0.05  0.00  0.84  0.00  0.05  0.00  0.00  0.00
  pipe4                   1.00   0.11  0.00  0.00  0.78  0.00  0.10  0.00  0.00  0.00
  pipe5                   1.00   0.11  0.05  0.00  0.73  0.00  0.11  0.00  0.00  0.00
  pipe6                   1.00   0.16  0.05  0.00  0.69  0.00  0.10  0.00  0.00  0.00
  pipe7                   1.00   0.21  0.01  0.00  0.63  0.00  0.15  0.00  0.00  0.00
  pipe8                   1.00   0.22  0.04  0.00  0.53  0.00  0.20  0.00  0.00  0.00
  pipe9                   1.00   0.27  0.04  0.00  0.40  0.00  0.29  0.00  0.00  0.00
  outlet                  1.00   0.31  0.02  0.00  0.00  0.00  0.67  0.00  0.00  0.00
  pipe1a                  1.00   0.01  0.00  0.00  0.99  0.00  0.00  0.00  0.04  0.00
  pipe2a                  1.00   0.01  0.00  0.00  0.99  0.00  0.00  0.00  0.11  0.00
  pipe3a                  1.00   0.06  0.00  0.00  0.94  0.00  0.00  0.00  0.12  0.00
  pipe4a                  1.00   0.11  0.00  0.00  0.89  0.00  0.00  0.00  0.12  0.00
  pipe5a                  1.00   0.16  0.00  0.00  0.84  0.00  0.00  0.00  0.09  0.00
  pipe6a                  1.00   0.17  0.00  0.00  0.83  0.00  0.00  0.00  0.14  0.00
  pipe7a                  1.00   0.21  0.00  0.00  0.79  0.00  0.00  0.00  0.14  0.00
  pipe8a                  1.00   0.26  0.00  0.00  0.74  0.00  0.00  0.00  0.15  0.00
  pipe9a                  1.00   0.31  0.00  0.00  0.69  0.00  0.00  0.00  0.16  0.00
  outleta                 1.00   0.32  0.00  0.00  0.00  0.68  0.00  0.00  0.13  0.00
  pipe1b                  1.00   0.01  0.00  0.00  0.99  0.00  0.00  0.00  0.00  0.00
  pipe2b                  1.00   0.01  0.00  0.00  0.99  0.00  0.00  0.00  0.00  0.00
  pipe3b                  1.00   0.01  0.00  0.00  0.99  0.00  0.00  0.00  0.00  0.00
  pipe4b                  1.00   0.01  0.00  0.00  0.99  0.00  0.00  0.00  0.00  0.00
  pipe5b                  1.00   0.01  0.00  0.00  0.99  0.00  0.00  0.00  0.00  0.00
  pipe6b                  1.00   0.01  0.00  0.00  0.99  0.00  0.00  0.00  0.00  0.00
  pipe7b                  1.00   0.01  0.00  0.00  0.99  0.00  0.00  0.00  0.00  0.00
  pipe8b                  1.00   0.01  0.00  0.00  0.99  0.00  0.00  0.00  0.00  0.00
  pipe9b                  1.00   0.02  0.00  0.00  0.98  0.00  0.00  0.00  0.00  0.00
  outletb                 1.00   0.02  0.00  0.00  0.98  0.00  0.00  0.00  0.00  0.00
  
  
  *************************
  Conduit Surcharge Summary
  *************************
  
  ----------------------------------------------------------------------------
                                                           Hours        Hours 
                         --------- Hours Full --------   Above Full   Capacity
  Conduit                Both Ends  Upstream  Dnstream   Normal Flow   Limited
  ----------------------------------------------------------------------------
  pipe1                       0.01      0.01      9.84      0.01         0.01
  pipe2                       0.01      0.01      9.39      0.01         0.01
  pipe3                       0.01      0.01      8.89      0.01         0.01
  pipe4                       0.01      0.01      8.85      0.01         0.01
  pipe5                       0.01      0.01      8.36      0.01         0.01
  pipe6                       0.01      0.01      7.87      0.01         0.01
  pipe7                       0.01      0.01      7.78      0.01         0.01
  pipe8                       0.01      0.01      7.33      0.01         0.01
  pipe9                       0.01      0.01      6.95      0.01         0.01
  outlet                      0.01      0.01      6.74      0.01         0.01
  pipe1a                      0.01      0.01      9.88      0.01         0.01
  pipe2a                      0.01      0.01      9.38      0.01         0.01
  pipe3a                      0.01      0.01      8.88      0.01         0.01
  pipe4a                      0.01      0.01      8.85      0.01         0.01
  pipe5a                      0.01      0.01      8.37      0.01         0.01
  pipe6a                      0.01      0.01      7.87      0.01         0.01
  pipe7a                      0.01      0.01      7.37      0.01         0.01
  pipe8a                      0.01      0.01      7.27      0.01         0.01
  pipe9a                      0.01      0.01      6.84      0.01         0.01
  pipe1b                      0.01      0.01      0.01      0.32         0.01
  pipe2b                      0.01      0.01      0.01      0.38         0.01
  pipe3b                      0.01      0.01      0.01      0.56         0.01
  pipe4b                      0.01      0.01      0.01      0.40         0.01
  pipe5b                      0.01      0.01      0.01      0.31         0.01
  pipe6b                      0.01      0.01      0.01      0.08         0.01
  

  Analysis begun on:  Tue Jun 23 20:33:29 2026
  Analysis ended on:  Tue Jun 23 20:33:41 2026
  Total elapsed time: 00:00:12