
  EPA STORM WATER MANAGEMENT MODEL - VERSION 5.2 (Build 5.2.4)
  ------------------------------------------------------------

  Templet file for all other runs. 
  Includes blocked culvert on 
  Trib01 at Westwood Ave. 
  WARNING 02: maximum depth increased for Node 6
  WARNING 02: maximum depth increased for Node JB_CUL01
  WARNING 02: maximum depth increased for Node JB_CUL03
  WARNING 02: maximum depth increased for Node JB_NC01
  WARNING 02: maximum depth increased for Node JB_NC02
  WARNING 02: maximum depth increased for Node JB_NC03
  WARNING 02: maximum depth increased for Node JB_NC04
  WARNING 02: maximum depth increased for Node JBT_NC01
  WARNING 02: maximum depth increased for Node JBT_NC06
  WARNING 02: maximum depth increased for Node ParkBridge
  WARNING 02: maximum depth increased for Node RP01
  WARNING 02: maximum depth increased for Node RP02
  WARNING 02: maximum depth increased for Node RP03
  WARNING 02: maximum depth increased for Node RP04
  WARNING 02: maximum depth increased for Node RP05
  WARNING 02: maximum depth increased for Node YoungsPond
  WARNING 02: maximum depth increased for Node TJHS_Storage
  
  *************
  Element Count
  *************
  Number of rain gages ...... 1
  Number of subcatchments ... 28
  Number of nodes ........... 209
  Number of links ........... 204
  Number of pollutants ...... 0
  Number of land uses ....... 0
  
  
  ****************
  Raingage Summary
  ****************
                                                      Data       Recording
  Name                 Data Source                    Type       Interval 
  ------------------------------------------------------------------------
  RG_JB01              10yr6hrCyclonic                INTENSITY    5 min.
  
  
  ********************
  Subcatchment Summary
  ********************
  Name                       Area     Width   %Imperv    %Slope Rain Gage            Outlet              
  -----------------------------------------------------------------------------------------------------------
  HCN01                    243.00   2630.00     33.00    1.3900 RG_JB01              5475                
  HCN02                    106.00   1457.00     50.00    1.5800 RG_JB01              JB_NC02             
  HCN03                    114.00   1360.00     28.00    1.4800 RG_JB01              JB_CUL01            
  HCN04                     93.00   1306.00     44.00    1.8100 RG_JB01              JB_CUL02            
  HCN05                    151.00   1448.00     27.00    1.7600 RG_JB01              JB_NC06             
  HCS01                     93.00   2349.00     63.00    1.8500 RG_JB01              5492                
  HCS02                     85.00   1329.00     56.00    1.8300 RG_JB01              JB_NC02             
  HCS04                    109.00   1268.00     63.00    1.1700 RG_JB01              5593                
  HCS05                     84.00   1651.00     49.00    1.2600 RG_JB01              JB_NC05             
  HCS0601                  168.00   1854.00     65.00    1.0800 RG_JB01              JBT_NC03            
  HCS0603                  104.00    740.00     22.00    0.1700 RG_JB01              JBT_CUL03           
  JB0101                   195.00   1739.00     24.00    1.3100 RG_JB01              JX8025              
  JB0102                   227.00   2151.00     29.00    1.0500 RG_JB01              JX8343              
  JB0103                   242.00   2080.00     27.00    0.6300 RG_JB01              JX8464              
  JB0104                   130.00   1559.00     29.00    0.7700 RG_JB01              JX9038              
  JB0201                   231.00   1967.00     28.00    0.6200 RG_JB01              JX8762              
  JB0202                   215.00   2129.00     27.00    0.8600 RG_JB01              JX8503              
  JB03                      94.00   1219.00     43.00    0.3600 RG_JB01              JX10021             
  JB0401                   286.00   2117.00     24.00    0.6100 RG_JB01              JX9591              
  JB0402                   204.00   1314.00     40.00    0.4100 RG_JB01              JX9468              
  JB040302                 102.00   1340.00     49.00    0.9600 RG_JB01              JX9044              
  JB0404                   165.00   1358.00     32.00    0.4500 RG_JB01              JX9146              
  JB0405                    54.00   1464.00     26.00    1.1200 RG_JB01              RP03                
  JB0501                    59.00   1149.00     55.00    1.6200 RG_JB01              MH1002              
  JB0504                    93.00   1568.00     66.00    1.0900 RG_JB01              JX10353             
  JB0505                   117.00   2852.00     43.00    1.4500 RG_JB01              JX10225             
  JB0506                    37.00    790.00     55.00    2.1800 RG_JB01              JX10216             
  JB0507                   148.00   2452.00     13.00    2.5000 RG_JB01              JB_NC07a            
  
  
  ************
  Node Summary
  ************
                                           Invert      Max.    Ponded    External
  Name                 Type                 Elev.     Depth      Area    Inflow  
  -------------------------------------------------------------------------------
  6                    JUNCTION            193.00     12.90       0.0
  7                    JUNCTION              0.00      2.00       0.0
  8                    JUNCTION              0.00      0.00       0.0
  27                   JUNCTION              0.00      4.50       0.0
  28                   JUNCTION              0.00      7.00       0.0
  5363                 JUNCTION            191.57     14.43       0.0
  5364                 JUNCTION            191.42     15.58       0.0
  5366                 JUNCTION            191.27     13.23       0.0
  5369                 JUNCTION            191.07     12.93       0.0
  5413                 JUNCTION            189.17     14.83       0.0
  5416                 JUNCTION            189.33     14.67       0.0
  5417                 JUNCTION            189.42     14.58       0.0
  5419                 JUNCTION            190.03     13.97       0.0
  5423                 JUNCTION            190.20     14.80       0.0
  5427                 JUNCTION            190.38     13.62       0.0
  5432                 JUNCTION            190.78     13.22       0.0
  5452                 JUNCTION            188.57     14.43       0.0
  5454                 JUNCTION            188.33     15.67       0.0
  5455                 JUNCTION            188.22     15.78       0.0
  5459                 JUNCTION            189.25     14.75       0.0
  5461                 JUNCTION            188.68     14.32       0.0
  5475                 JUNCTION            188.96     14.04       0.0
  5476                 JUNCTION            188.09     15.91       0.0
  5478                 JUNCTION            187.77     16.23       0.0
  5480                 JUNCTION            187.45     15.05       0.0
  5482                 JUNCTION            187.64     15.36       0.0
  5492                 JUNCTION            187.29     14.96       0.0
  5495                 JUNCTION            187.18     14.82       0.0
  5496                 JUNCTION            187.13     14.87       0.0
  5498                 JUNCTION            187.06     14.94       0.0
  5501                 JUNCTION            186.70     13.30       0.0
  5502                 JUNCTION            186.80     13.20       0.0
  5507                 JUNCTION            186.25     16.32       0.0
  5540                 JUNCTION            185.59     14.41       0.0
  5542                 JUNCTION            185.69     16.32       0.0
  5577                 JUNCTION            201.22      8.78       0.0
  5578                 JUNCTION            205.70     10.30       0.0
  5591                 JUNCTION            197.40      8.60       0.0
  5592                 JUNCTION            198.28      7.72       0.0
  5593                 JUNCTION            195.67      8.33       0.0
  5602                 JUNCTION            193.54     10.46       0.0
  6292                 JUNCTION            190.92     11.08       0.0
  6302                 JUNCTION            190.31     11.69       0.0
  6306                 JUNCTION            189.48     12.52       0.0
  6307                 JUNCTION            189.30     12.70       0.0
  6308                 JUNCTION            189.35     12.65       0.0
  6309                 JUNCTION            186.10     13.90       0.0
  6310                 JUNCTION            182.82     19.18       0.0
  6311                 JUNCTION            180.74     14.76       0.0
  6312                 JUNCTION            178.59     13.41       0.0
  6313                 JUNCTION            178.14     12.36       0.0
  6322                 JUNCTION            184.33     13.67       0.0
  JB_CUL01             JUNCTION            174.30     16.00       0.0
  JB_CUL02             JUNCTION            166.30     26.10       0.0
  JB_CUL03             JUNCTION            162.00     20.00       0.0
  JB_CUL04             JUNCTION            156.00     20.10       0.0
  JB_NC01              JUNCTION            184.00     18.00       0.0
  JB_NC02              JUNCTION            179.42     18.00       0.0
  JB_NC03              JUNCTION            174.00     22.00       0.0
  JB_NC04              JUNCTION            171.26     26.00       0.0
  JB_NC05              JUNCTION            166.00     26.10       0.0
  JB_NC06              JUNCTION            156.30     22.00       0.0
  JB_NC07              JUNCTION            150.00     18.00       0.0
  JB_NC07a             JUNCTION            155.70     16.00       0.0
  JB_NC08              JUNCTION            146.00     20.00       0.0
  JBT_CUL01            JUNCTION            184.00     14.56       0.0
  JBT_CUL02            JUNCTION            182.30     12.10       0.0
  JBT_CUL03            JUNCTION            180.00     16.00       0.0
  JBT_CUL04            JUNCTION            168.00     14.00       0.0
  JBT_NC01             JUNCTION            186.54     12.00       0.0
  JBT_NC02             JUNCTION            185.45     14.56       0.0
  JBT_NC03             JUNCTION            183.80     12.10       0.0
  JBT_NC04             JUNCTION            182.00     10.10       0.0
  JBT_NC05             JUNCTION            179.42     16.00       0.0
  JBT_NC06             JUNCTION            167.80     16.00       0.0
  JX10021              JUNCTION            206.39      9.13       0.0
  JX10216              JUNCTION            184.60     10.09       0.0
  JX10217              JUNCTION            173.91     14.48       0.0
  JX10218              JUNCTION            173.96     14.54       0.0
  JX10222              JUNCTION            176.40     17.00       0.0
  JX10223              JUNCTION            177.98      8.86       0.0
  JX10224              JUNCTION            180.51     19.91       0.0
  JX10225              JUNCTION            184.35     12.00       0.0
  JX10306              JUNCTION            181.43     16.38       0.0
  JX10310              JUNCTION            182.05     18.02       0.0
  JX10311              JUNCTION            184.06     13.54       0.0
  JX10335              JUNCTION            184.86     11.43       0.0
  JX10339              JUNCTION            185.40     12.09       0.0
  JX10351              JUNCTION            185.63      7.67       0.0
  JX10352              JUNCTION            185.95      6.92       0.0
  JX10353              JUNCTION            186.92      8.97       0.0
  JX7805               JUNCTION            188.87     14.52       0.0
  JX7806               JUNCTION            188.81     14.60       0.0
  JX7867               JUNCTION            234.00      7.10       0.0
  JX7891               JUNCTION            247.76     12.33       0.0
  JX7894               JUNCTION            249.45     10.86       0.0
  JX7895               JUNCTION            246.44     14.06       0.0
  JX7899               JUNCTION            240.49     13.71       0.0
  JX7906               JUNCTION            236.33     13.80       0.0
  JX7907               JUNCTION            235.84     14.26       0.0
  JX7908               JUNCTION            238.52     11.34       0.0
  JX8008               JUNCTION            244.55      7.08       0.0
  JX8013               JUNCTION            232.80     15.80       0.0
  JX8014               JUNCTION            231.87     17.33       0.0
  JX8015               JUNCTION            229.34     16.96       0.0
  JX8024               JUNCTION            225.40     19.20       0.0
  JX8025               JUNCTION            224.70     20.90       0.0
  JX8060               JUNCTION            217.59     18.81       0.0
  JX8066               JUNCTION            215.13     18.97       0.0
  JX8070               JUNCTION            227.90      8.20       0.0
  JX8093               JUNCTION            232.48      7.49       0.0
  JX8119               JUNCTION            220.16     20.70       0.0
  JX8163               JUNCTION            210.92     16.78       0.0
  JX8206               JUNCTION            200.50     20.20       0.0
  JX8342               JUNCTION            211.33     17.07       0.0
  JX8343               JUNCTION            205.88     22.32       0.0
  JX8344               JUNCTION            213.68     19.52       0.0
  JX8354               JUNCTION            202.25     20.55       0.0
  JX8355               JUNCTION            196.32     16.18       0.0
  JX8379               JUNCTION            192.25     17.03       0.0
  JX8405               JUNCTION            204.34     20.65       0.0
  JX8433               JUNCTION            200.87     16.00       0.0
  JX8436               JUNCTION            206.40     14.60       0.0
  JX8440               JUNCTION            211.86     18.60       0.0
  JX8462               JUNCTION            217.85     19.13       0.0
  JX8463               JUNCTION            218.67     17.79       0.0
  JX8464               JUNCTION            218.67     17.95       0.0
  JX8465               JUNCTION            212.47     20.63       0.0
  JX8496               JUNCTION            198.63     18.87       0.0
  JX8500               JUNCTION            196.38     18.72       0.0
  JX8501               JUNCTION            195.00     17.00       0.0
  JX8502               JUNCTION            194.92     17.00       0.0
  JX8503               JUNCTION            194.82     17.00       0.0
  JX8510               JUNCTION            192.46     15.00       0.0
  JX8512               JUNCTION            202.05     19.78       0.0
  JX8531               JUNCTION            197.50     16.09       0.0
  JX8549               JUNCTION            188.15     10.50       0.0
  JX8552               JUNCTION            197.55     16.35       0.0
  JX8553               JUNCTION            203.11      9.00       0.0
  JX8554               JUNCTION            205.21     15.19       0.0
  JX8762               JUNCTION            208.58     18.92       0.0
  JX8763               JUNCTION            205.56     16.44       0.0
  JX8764               JUNCTION            207.18     19.32       0.0
  JX8952               JUNCTION            193.75     18.77       0.0
  JX8955               JUNCTION            196.97     14.36       0.0
  JX8956               JUNCTION            196.91     14.29       0.0
  JX8959               JUNCTION            206.03     16.47       0.0
  JX9038               JUNCTION            195.75     18.25       0.0
  JX9044               JUNCTION            192.89     11.80       0.0
  JX9045               JUNCTION            192.10     11.80       0.0
  JX9047               JUNCTION            191.36      9.22       0.0
  JX9129               JUNCTION            194.40     13.25       0.0
  JX9130               JUNCTION            196.88     12.60       0.0
  JX9145               JUNCTION            201.82     12.00       0.0
  JX9146               JUNCTION            198.51     12.33       0.0
  JX9155               JUNCTION            202.48      9.15       0.0
  JX9157               JUNCTION            204.88      8.72       0.0
  JX9162               JUNCTION            209.10      8.62       0.0
  JX9163               JUNCTION            211.96      8.82       0.0
  JX9164               JUNCTION            213.44      9.30       0.0
  JX9181               JUNCTION            214.30      9.10       0.0
  JX9184               JUNCTION            203.52     11.50       0.0
  JX9189               JUNCTION            207.40     11.90       0.0
  JX9386               JUNCTION            197.54     16.96       0.0
  JX9401               JUNCTION            187.50      8.70       0.0
  JX9402               JUNCTION            190.90      7.30       0.0
  JX9408               JUNCTION            191.01      7.60       0.0
  JX9411               JUNCTION            191.84      6.80       0.0
  JX9421               JUNCTION            189.97     10.30       0.0
  JX9422               JUNCTION            189.70     10.40       0.0
  JX9426               JUNCTION            189.04     14.15       0.0
  JX9435               JUNCTION            190.77      9.22       0.0
  JX9440               JUNCTION            191.40     10.80       0.0
  JX9450               JUNCTION            192.57     10.10       0.0
  JX9460               JUNCTION            193.70     10.71       0.0
  JX9466               JUNCTION            196.36     12.60       0.0
  JX9468               JUNCTION            198.83     12.65       0.0
  JX9487               JUNCTION            200.03     12.10       0.0
  JX9494               JUNCTION            202.80     11.50       0.0
  JX9509               JUNCTION            206.05     13.10       0.0
  JX9527               JUNCTION            207.58     12.75       0.0
  JX9550               JUNCTION            209.40     10.81       0.0
  JX9570               JUNCTION            211.60      9.51       0.0
  JX9582               JUNCTION            212.54      9.50       0.0
  JX9591               JUNCTION            213.48     10.33       0.0
  JX9823               JUNCTION            208.13      7.67       0.0
  JX9824               JUNCTION            205.70     10.30       0.0
  JX9825               JUNCTION            208.79      7.19       0.0
  JX9865               JUNCTION            211.70      8.10       0.0
  JX9866               JUNCTION            208.06     12.30       0.0
  JX9867               JUNCTION            209.25     11.30       0.0
  JX9870               JUNCTION            208.28     10.90       0.0
  JX9877               JUNCTION            211.05     10.30       0.0
  JX9884               JUNCTION            214.55      8.45       0.0
  MH1001               JUNCTION            184.46      9.75       0.0
  MH1002               JUNCTION            186.90      7.50       0.0
  ParkBridge           JUNCTION            144.00     20.00       0.0
  RP01                 JUNCTION            186.31     12.00       0.0
  RP02                 JUNCTION            186.09     12.00       0.0
  RP03                 JUNCTION            185.69     12.00       0.0
  RP04                 JUNCTION            184.75     12.00       0.0
  RP05                 JUNCTION            184.50     12.00       0.0
  RP06                 JUNCTION            184.24     12.00       0.0
  WS0102OF             JUNCTION            191.70     15.30       0.0
  JB_OF1               OUTFALL             142.00      0.00       0.0
  JB_OF2               OUTFALL             142.00      0.00       0.0
  JB_OF3               OUTFALL             142.00      0.00       0.0
  YoungsPond           STORAGE             142.00    108.00       0.0
  TJHS_Storage         STORAGE             194.40      7.00       0.0
  
  
  ************
  Link Summary
  ************
  Name             From Node        To Node          Type            Length    %Slope Roughness
  ---------------------------------------------------------------------------------------------
  54650            5363             5364             CONDUIT           64.5    0.2327    0.0130
  54652            5364             5366             CONDUIT           69.6    0.2156    0.0130
  54654            WS0102OF         5363             CONDUIT           61.0    0.2133    0.0130
  54655            5366             5369             CONDUIT           90.7    0.2206    0.0130
  54697            5417             5416             CONDUIT           43.3    0.2079    0.0130
  54698            5419             5417             CONDUIT          274.0    0.2226    0.0130
  54703            5423             5419             CONDUIT           80.0    0.2125    0.0130
  54707            5427             5423             CONDUIT           80.6    0.2232    0.0130
  54713            5432             5427             CONDUIT          180.0    0.2222    0.0130
  54714            5369             5432             CONDUIT          134.3    0.2159    0.0130
  54732            5452             5454             CONDUIT          108.5    0.2211    0.0130
  54733            5454             5455             CONDUIT           50.9    0.2159    0.0130
  54737            5459             5413             CONDUIT           36.7    0.2180    0.0130
  54738            5416             5459             CONDUIT           36.7    0.2179    0.0130
  54748            5461             5452             CONDUIT           48.7    0.2260    0.0130
  54754            5475             5461             CONDUIT          129.1    0.2169    0.0130
  54755            5413             5475             CONDUIT           94.0    0.2234    0.0130
  54758            5455             5476             CONDUIT           59.9    0.2172    0.0130
  54760            5476             5478             CONDUIT          143.4    0.2232    0.0130
  54762            5478             5482             CONDUIT           57.5    0.2260    0.0130
  54763            5482             5480             CONDUIT           86.7    0.2193    0.0130
  54775            5480             5492             CONDUIT           73.2    0.2187    0.0130
  54776            5492             5495             CONDUIT           51.4    0.2138    0.0130
  54777            5495             5496             CONDUIT           21.1    0.2366    0.0130
  54779            5496             5498             CONDUIT           35.1    0.1996    0.0130
  54782            5502             5501             CONDUIT           45.1    0.2217    0.0130
  54783            5498             5502             CONDUIT          114.6    0.2268    0.0130
  54787            5501             5507             CONDUIT          207.1    0.2173    0.0130
  54816            5542             5540             CONDUIT           43.0    0.2323    0.0130
  54848            JX9824           5577             CONDUIT          668.6    0.6701    0.0130
  54854            5577             5592             CONDUIT          438.7    0.6702    0.0130
  54858            5592             5591             CONDUIT          102.7    0.8572    0.0130
  54860            5591             5593             CONDUIT          173.2    0.9991    0.0130
  54869            5593             5602             CONDUIT          226.7    0.9398    0.0130
  55398            5602             6292             CONDUIT          291.2    0.8997    0.0130
  55407            6292             6302             CONDUIT           50.2    1.2152    0.0130
  55412            6302             6306             CONDUIT           69.6    1.1921    0.0130
  55413            6308             6307             CONDUIT           19.5    0.2564    0.0130
  55414            6306             6308             CONDUIT           50.5    0.2574    0.0130
  55415            6307             6309             CONDUIT          269.0    1.1896    0.0130
  55416            6309             6310             CONDUIT          275.6    1.1903    0.0130
  55417            6310             6311             CONDUIT          174.8    1.1903    0.0130
  55418            6311             6312             CONDUIT          180.5    1.1911    0.0130
  55419            6312             JB_NC04          CONDUIT           38.4    1.1723    0.0130
  55428            5540             6322             CONDUIT          576.2    0.2187    0.0130
  55429            6322             JB_NC01          CONDUIT          111.0    0.2973    0.0130
  CUL_JB01.1       JB_CUL01         JB_NC03          CONDUIT          127.0    0.2362    0.0200
  CUL_JB02.1       JB_CUL02         JB_NC05          CONDUIT           43.0    0.6977    0.0150
  CUL_JB03.1       JB_CUL03         JB_NC06          CONDUIT          345.0    1.6524    0.0130
  CUL_JB03.2       JB_CUL03         JB_NC06          CONDUIT          345.0    1.6524    0.0240
  CUL_JB04.1       JB_CUL04         JB_NC07a         CONDUIT          200.0    0.1500    0.0150
  CUL_JBT01.1      JBT_CUL01        JBT_NC03         CONDUIT           66.0    0.3030    0.0130
  CUL_JBT01.2      JBT_CUL01        JBT_NC03         CONDUIT           66.0    0.3030    0.0130
  CUL_JBT02.1      JBT_CUL02        JBT_NC04         CONDUIT           71.0    0.4225    0.0130
  CUL_JBT02.2      JBT_CUL02        JBT_NC04         CONDUIT           71.0    0.4225    0.0130
  CUL_JBT02.3      JBT_CUL02        JBT_NC04         CONDUIT           71.0    0.4225    0.0130
  CUL_JBT03        JBT_CUL03        JBT_NC05         CONDUIT          223.0    0.2601    0.0130
  CUL_JBT04.1      JBT_CUL04        JBT_NC06         CONDUIT           89.0    0.2247    0.0240
  CUL_JBT04.2      JBT_CUL04        JBT_NC06         CONDUIT           89.0    0.2247    0.0240
  NC_JB01          JB_NC01          JB_NC02          CONDUIT         1359.0    0.3370    0.0450
  NC_JB01a         5507             5542             CONDUIT          254.0    0.2205    0.0450
  NC_JB02          JB_NC02          JB_CUL01         CONDUIT         1034.0    0.4952    0.0450
  NC_JB03          JB_NC03          JB_NC04          CONDUIT          853.0    0.3212    0.0450
  NC_JB04          JB_NC04          JB_CUL02         CONDUIT         1481.0    0.3349    0.0450
  NC_JB05          JB_NC05          JB_CUL03         CONDUIT         1019.0    0.3925    0.0450
  NC_JB06          JB_NC06          JB_CUL04         CONDUIT          103.0    0.2913    0.0450
  NC_JB07          JB_NC07          JB_NC08          CONDUIT         1398.0    0.2861    0.0450
  NC_JB07a         JB_NC07a         JB_NC07          CONDUIT         2338.0    0.2438    0.0450
  NC_JB08a         JB_NC08          ParkBridge       CONDUIT          660.0    0.3030    0.0450
  NC_JB08b         ParkBridge       YoungsPond       CONDUIT          280.0    0.7143    0.0450
  NC_JBT03         JBT_NC03         JBT_CUL02        CONDUIT         1044.0    0.1437    0.0450
  NC_JBT04         JBT_NC04         JBT_CUL03        CONDUIT          886.0    0.2257    0.0450
  NC_JBT05         JBT_NC05         JBT_CUL04        CONDUIT         2706.0    0.4220    0.0450
  NC_JBT06         JBT_NC06         JB_CUL03         CONDUIT          519.0    1.1176    0.0130
  PI1001           MH1001           JBT_NC03         CONDUIT           77.8    0.8481    0.0130
  PI1002           MH1002           MH1001           CONDUIT          191.1    1.2771    0.0130
  PI10033          JX9823           JX9824           CONDUIT           40.0    6.0862    0.0130
  PI10034          JX9825           JX9824           CONDUIT           26.7   11.6646    0.0130
  PI10080          JX9494           JX9487           CONDUIT          338.1    0.8192    0.0130
  PI10097          JX9509           JX9494           CONDUIT          428.8    0.7580    0.0130
  PI10114          JX9527           JX9509           CONDUIT          432.5    0.3538    0.0130
  PI10406          JX9870           JX10021          CONDUIT          456.0    0.4144    0.0130
  PI10407          JX10021          JX9824           CONDUIT           95.7    0.7212    0.0130
  PI10417          JX8549           JBT_NC01         CONDUIT          405.0    0.3975    0.0130
  PI10598          JX10216          JX10217          CONDUIT          390.8    2.7364    0.0130
  PI10599          JX10217          JX10218          CONDUIT           37.7   -0.1326    0.0130
  PI10600          JX10218          JB_NC06          CONDUIT          526.3    3.3573    0.0130
  PI10603          JX10222          JX10217          CONDUIT          774.8    0.3214    0.0130
  PI10605          JX10223          JX10222          CONDUIT          533.0    0.2964    0.0130
  PI10607          JX10224          JX10223          CONDUIT          504.4    0.5016    0.0130
  PI10612          JX10225          JX10224          CONDUIT           45.7    2.2763    0.0130
  PI10688          JX10306          JX10224          CONDUIT           96.6    0.9521    0.0130
  PI10689          JX10310          JX10306          CONDUIT          121.0    0.5125    0.0130
  PI10695          JX10311          JX10310          CONDUIT          268.8    0.7477    0.0130
  PI10729          JX10335          JX10311          CONDUIT          171.3    0.4669    0.0130
  PI10734          JX10339          JX10335          CONDUIT          131.9    0.4095    0.0130
  PI10747          JX10351          JX10339          CONDUIT          128.8    0.1785    0.0130
  PI10748          JX10352          JX10351          CONDUIT           66.3    0.4823    0.0130
  PI10749          JX10353          JX10352          CONDUIT          347.6    0.2791    0.0130
  PI6251           JX9884           JX9877           CONDUIT          247.7    1.4131    0.0130
  PI6846           JX9386           JX8355           CONDUIT          285.0    0.4281    0.0130
  PI7219           JX8762           JX8764           CONDUIT          202.2    0.6924    0.0130
  PI7221           JX8764           JX8763           CONDUIT          173.9    0.9318    0.0130
  PI7222           JX8763           JX8512           CONDUIT          681.6    0.5149    0.0130
  PI7344           JX7806           JX8549           CONDUIT          419.4    0.1574    0.0130
  PI7398           JX8405           JX8354           CONDUIT          660.6    0.3164    0.0130
  PI7873           JX9421           JX9422           CONDUIT          314.6    0.0858    0.0130
  PI7877           JX9422           JX9426           CONDUIT          314.7    0.2097    0.0130
  PI7882           JX9426           JX7805           CONDUIT           42.0    0.4052    0.0130
  PI7891           JX9435           JX9421           CONDUIT          370.4    0.2160    0.0130
  PI7898           JX9440           JX9435           CONDUIT          394.3    0.1598    0.0130
  PI7905           JX9450           JX9440           CONDUIT          391.5    0.2988    0.0130
  PI7917           JX9460           JX9450           CONDUIT          362.1    0.3120    0.0130
  PI7931           JX7891           JX7895           CONDUIT           35.0    3.7720    0.0130
  PI7934           JX7894           JX7895           CONDUIT           21.9   13.9083    0.0130
  PI7937           JX7895           JX7899           CONDUIT          648.7    0.9173    0.0130
  PI7944           JX7908           JX7907           CONDUIT           37.5   -4.5940    0.0130
  PI7945           JX7906           JX7907           CONDUIT           45.8   -8.5627    0.0130
  PI7956           JX7899           JX7907           CONDUIT          340.1    1.3674    0.0130
  PI8012           JX9865           JX9866           CONDUIT           22.3   16.5677    0.0130
  PI8017           JX9867           JX9866           CONDUIT           61.3    1.9426    0.0130
  PI8022           JX9866           JX9870           CONDUIT          264.6   -0.0832    0.0130
  PI8023           JX9877           JX9867           CONDUIT          322.2    0.5587    0.0130
  PI8128           JX8119           JX8060           CONDUIT          532.0    0.4830    0.0130
  PI8150           JX8060           JX8066           CONDUIT          374.6    0.6567    0.0130
  PI8165           JX9550           JX9527           CONDUIT          451.3    0.4032    0.0130
  PI8187           JX9570           JX9550           CONDUIT          601.5    0.3657    0.0130
  PI8201           JX9582           JX9570           CONDUIT          349.1    0.2693    0.0130
  PI8214           JX9591           JX9582           CONDUIT          323.8    0.2903    0.0130
  PI8529           JX8163           JX8343           CONDUIT           78.0    6.4726    0.0130
  PI8640           JX8344           JX8465           CONDUIT          255.2    0.4742    0.0130
  PI8641           JX8066           JX8344           CONDUIT          323.3    0.4485    0.0130
  PI8643           JX8465           JX8343           CONDUIT          776.1    0.8492    0.0130
  PI8713           JX8008           JX7908           CONDUIT          109.9    1.6379    0.0130
  PI8779           JX7907           JX8013           CONDUIT          282.8    1.0752    0.0130
  PI8780           JX8013           JX8014           CONDUIT          149.8    0.6206    0.0130
  PI8781           JX8014           JX8015           CONDUIT          373.7    0.6771    0.0130
  PI8782           JX8015           JX8024           CONDUIT          403.4    0.9768    0.0130
  PI8783           JX8024           JX8025           CONDUIT          127.1    0.5508    0.0130
  PI8798           JX8025           JX8119           CONDUIT          671.6    0.6760    0.0130
  PI8816           JX7867           JX8119           CONDUIT           28.0   56.7530    0.0130
  PI8820           JX8093           JX8119           CONDUIT          292.5    4.2161    0.0130
  PI8853           JX8342           JX8343           CONDUIT           59.6    9.1890    0.0130
  PI8895           JX8433           JX9386           CONDUIT           32.3   10.3583    0.0130
  PI8896           JX8436           JX8433           CONDUIT          460.9    1.2000    0.0130
  PI8900           JX8440           JX8436           CONDUIT          476.0    1.1471    0.0130
  PI8926           JX8464           JX8462           CONDUIT           69.2    1.1854    0.0130
  PI8927           JX8463           JX8462           CONDUIT           41.8    1.9602    0.0130
  PI8928           JX8462           JX8440           CONDUIT          626.8    0.9556    0.0130
  PI9053           JX8496           JX8500           CONDUIT          460.3    0.4888    0.0130
  PI9054           JX8500           JX8501           CONDUIT          323.2    0.4269    0.0130
  PI9055           JX8501           JX8502           CONDUIT           18.8    0.4249    0.0130
  PI9056           JX8502           JX8503           CONDUIT           23.0    0.4348    0.0130
  PI9063           JX8512           JX8496           CONDUIT          699.5    0.4889    0.0130
  PI9086           JX8552           JX8531           CONDUIT           27.2    0.1838    0.0130
  PI9087           JX8553           JX8552           CONDUIT          121.8    4.5685    0.0130
  PI9088           JX8554           JX8553           CONDUIT          828.3    0.2535    0.0130
  PI9433           JX8355           JX9038           CONDUIT          175.4    0.3249    0.0130
  PI9434           JX9038           JX8952           CONDUIT          617.4    0.3240    0.0130
  PI9435           JX8952           JX8379           CONDUIT          587.1    0.2555    0.0130
  PI9436           JX8379           WS0102OF         CONDUIT          194.3    0.2830    0.0130
  PI9437           JX8503           JX8510           CONDUIT          568.4    0.4152    0.0130
  PI9438           JX8510           WS0102OF         CONDUIT           26.1    0.6886    0.0130
  PI9439           JX8956           JX8503           CONDUIT           65.3    3.2042    0.0130
  PI9440           JX8955           JX8956           CONDUIT           58.2    0.1032    0.0130
  PI9461           JX8206           JX9386           CONDUIT          697.8    0.4242    0.0130
  PI9462           JX8343           JX8405           CONDUIT          464.4    0.3316    0.0130
  PI9484           JX8354           JX8206           CONDUIT          430.1    0.4069    0.0130
  PI9490           JX8531           JX8955           CONDUIT          247.7    0.2140    0.0130
  PI9527           JX9044           JX9045           CONDUIT          301.2    0.2623    0.0130
  PI9530           JX9047           JBT_NC01         CONDUIT          268.9    1.7928    0.0130
  PI9533           JX9045           JX9047           CONDUIT          319.4    0.2317    0.0130
  PI9641           JX9129           6                CONDUIT          519.8    0.2694    0.0130
  PI9642           JX9130           JX9129           CONDUIT          342.3    0.7245    0.0130
  PI9649           JX9402           JX8549           CONDUIT           48.3    5.6993    0.0130
  PI9658           JX9145           28               CONDUIT          383.1   61.3326    0.0130
  PI9662           JX9146           JX9130           CONDUIT          333.2    0.4892    0.0130
  PI9667           JX9155           27               CONDUIT          366.2   66.3560    0.0130
  PI9669           JX9157           JX9155           CONDUIT          306.3    0.7836    0.0130
  PI9675           JX9162           JX9157           CONDUIT          355.4    1.1876    0.0130
  PI9676           JX9163           JX9162           CONDUIT          332.7    0.8598    0.0130
  PI9677           JX9164           JX9163           CONDUIT          340.2    0.4350    0.0130
  PI9691           JX9181           JX9164           CONDUIT          314.5    0.2735    0.0130
  PI9697           JX9184           JX9145           CONDUIT          419.5    0.4052    0.0130
  PI9702           JX9189           JX9184           CONDUIT          242.0    1.4794    0.0130
  PI9768           JX9408           JX9402           CONDUIT           79.6    0.1383    0.0130
  PI9773           JX9411           JX9408           CONDUIT          153.0    0.5424    0.0130
  PI9783           JX7805           JX7806           CONDUIT           20.6    0.2914    0.0130
  PI9799           JX9466           JX9460           CONDUIT          355.8    0.7476    0.0130
  PI9802           JX9468           JX9466           CONDUIT          319.9    0.7721    0.0130
  PI9820           JX9487           JX9468           CONDUIT          167.8    0.7151    0.0130
  WNC01            JBT_NC01         RP01             CONDUIT          169.0    0.1361    0.0450
  WNC02            RP01             RP02             CONDUIT          162.0    0.1358    0.0450
  WNC03            RP02             RP03             CONDUIT          291.0    0.1375    0.0450
  WNC04            RP03             RP04             CONDUIT          687.0    0.1368    0.0450
  WNC05            RP04             RP05             CONDUIT          188.0    0.1330    0.0450
  WNC06            RP05             RP06             CONDUIT          186.0    0.1398    0.0450
  WNC07            RP06             JBT_CUL01        CONDUIT          184.0    0.1304    0.0450
  TJHS_OF          TJHS_Storage     JX9044           CONDUIT           50.0    1.0201    0.0130
  YOUNGSPONDORIF   YoungsPond       JB_OF2           ORIFICE     
  TJHS_Gate        7                8                ORIFICE     
  YoungsPondW      YoungsPond       JB_OF1           WEIR        
  YOUNGSPOONDW2    YoungsPond       JB_OF3           WEIR        
  TJHS_InletWeir   6                TJHS_Storage     WEIR        
  
  
  *********************
  Cross Section Summary
  *********************
                                        Full     Full     Hyd.     Max.   No. of     Full
  Conduit          Shape               Depth     Area     Rad.    Width  Barrels     Flow
  ---------------------------------------------------------------------------------------
  54650            CIRCULAR            10.50    86.59     2.62    10.50        2   908.65
  54652            CIRCULAR            10.50    86.59     2.62    10.50        2   874.58
  54654            CIRCULAR            10.50    86.59     2.62    10.50        2   869.86
  54655            CIRCULAR            10.50    86.59     2.62    10.50        2   884.65
  54697            RECT_CLOSED         10.00   100.00     2.50    10.00        2   959.95
  54698            RECT_CLOSED         10.00   100.00     2.50    10.00        2   993.46
  54703            CIRCULAR            10.50    86.59     2.62    10.50        2   868.30
  54707            CIRCULAR            10.50    86.59     2.62    10.50        2   889.87
  54713            CIRCULAR            10.50    86.59     2.62    10.50        2   887.91
  54714            CIRCULAR            10.50    86.59     2.62    10.50        2   875.07
  54732            RECT_CLOSED         10.00   100.00     2.50    10.00        2   990.06
  54733            RECT_CLOSED         10.00   100.00     2.50    10.00        2   978.44
  54737            RECT_CLOSED         10.00   100.00     2.50    10.00        2   983.06
  54738            RECT_CLOSED         10.00   100.00     2.50    10.00        2   982.80
  54748            RECT_CLOSED         10.00   100.00     2.50    10.00        2  1001.00
  54754            RECT_CLOSED         10.00   100.00     2.50    10.00        2   980.55
  54755            RECT_CLOSED         10.00   100.00     2.50    10.00        2   995.10
  54758            RECT_CLOSED         10.00   100.00     2.50    10.00        2   981.32
  54760            RECT_CLOSED         10.00   100.00     2.50    10.00        2   994.65
  54762            RECT_CLOSED         10.00   100.00     2.50    10.00        2  1000.91
  54763            RECT_CLOSED         10.00   100.00     2.50    10.00        2   985.97
  54775            RECT_CLOSED         10.00   100.00     2.50    10.00        2   984.67
  54776            RECT_CLOSED         10.00   100.00     2.50    10.00        2   973.68
  54777            RECT_CLOSED         12.00   144.00     3.00    12.00        2  1665.54
  54779            RECT_CLOSED         12.00   144.00     3.00    12.00        2  1529.68
  54782            RECT_CLOSED         12.00   144.00     3.00    12.00        2  1612.25
  54783            RECT_CLOSED         12.00   144.00     3.00    12.00        2  1630.56
  54787            RECT_CLOSED         12.00   144.00     3.00    12.00        2  1596.01
  54816            RECT_OPEN           11.33   254.93     5.64    22.50        1  4452.54
  54848            CIRCULAR             5.00    19.63     1.25     5.00        1   213.20
  54854            CIRCULAR             5.00    19.63     1.25     5.00        1   213.21
  54858            CIRCULAR             4.50    15.90     1.12     4.50        1   182.07
  54860            CIRCULAR             5.50    23.76     1.38     5.50        1   335.66
  54869            CIRCULAR             5.50    23.76     1.38     5.50        1   325.55
  55398            CIRCULAR             5.50    23.76     1.38     5.50        1   318.53
  55407            CIRCULAR             5.50    23.76     1.38     5.50        1   370.19
  55412            CIRCULAR             5.50    23.76     1.38     5.50        1   366.65
  55413            CIRCULAR             5.50    23.76     1.38     5.50        1   170.04
  55414            CIRCULAR             5.50    23.76     1.38     5.50        1   170.38
  55415            CIRCULAR             6.00    28.27     1.50     6.00        1   461.92
  55416            CIRCULAR             6.00    28.27     1.50     6.00        1   462.04
  55417            CIRCULAR             6.00    28.27     1.50     6.00        1   462.05
  55418            CIRCULAR             6.00    28.27     1.50     6.00        1   462.20
  55419            CIRCULAR             6.00    28.27     1.50     6.00        1   458.54
  55428            RECT_CLOSED         11.33   254.93     3.77    22.50        2  3299.44
  55429            RECT_CLOSED         11.33   254.93     3.77    22.50        2  3847.14
  CUL_JB01.1       RECT_CLOSED          8.33   316.54     3.42    38.00        1  2592.79
  CUL_JB02.1       RECT_CLOSED         10.00   100.00     2.50    10.00        3  1524.24
  CUL_JB03.1       MODBASKETHANDLE      8.00    66.32     2.14     9.50        1  1620.49
  CUL_JB03.2       CIRCULAR             9.00    63.62     2.25     9.00        1   869.42
  CUL_JB04.1       RECT_CLOSED         12.00   120.00     2.73    10.00        3   898.75
  CUL_JBT01.1      RECT_CLOSED          6.00    60.00     1.88    10.00        1   574.08
  CUL_JBT01.2      RECT_CLOSED          3.50    35.00     1.30    10.00        1   261.83
  CUL_JBT02.1      CIRCULAR             5.50    23.76     1.38     5.50        1   218.29
  CUL_JBT02.2      CIRCULAR             5.50    23.76     1.38     5.50        1   218.29
  CUL_JBT02.3      CIRCULAR             5.50    23.76     1.38     5.50        1   218.29
  CUL_JBT03        RECT_CLOSED          8.00    64.00     2.00     8.00        1   592.25
  CUL_JBT04.1      CIRCULAR            10.00    78.54     2.50    10.00        1   424.63
  CUL_JBT04.2      CIRCULAR            10.00    78.54     2.50    10.00        1   424.63
  NC_JB01          JB_NC01             18.00  2870.00     8.89   660.00        1 23619.29
  NC_JB01a         JB_NC01a            16.31   684.22    10.60    65.00        1  5118.68
  NC_JB02          JB_NC02             16.00  3026.00     6.33   447.00        1 24056.16
  NC_JB03          JB_NC03             22.00  2716.00    10.07   335.00        1 23704.96
  NC_JB04          JB_NC04             26.00  9289.00    15.79   831.00        1 111728.14
  NC_JB05          JB_NC05             20.00  1355.00    10.48   671.00        1 13421.69
  NC_JB06          JB_NC06             20.00  2219.00    14.40   177.00        1 23404.08
  NC_JB07          JB_NC07             18.00  9023.00    12.22   808.00        1 84547.17
  NC_JB07a         JB_NC07a            16.00  4855.00    10.73   514.00        1 38519.16
  NC_JB08a         NC_JB08             20.00  6793.00    15.38   491.00        1 76369.88
  NC_JB08b         NC_JB08             20.00  6793.00    15.38   491.00        1 117251.82
  NC_JBT03         JBT_NC03            12.00  2508.00     3.79   536.00        1  7627.24
  NC_JBT04         JBT_NC04            10.00   834.00     4.09   201.00        1  3348.76
  NC_JBT05         JBT_NC05            14.00  9008.00     6.27  1037.00        1 65725.74
  NC_JBT06         JBT_NC06            16.00  5708.00    11.41   492.00        1 349566.34
  PI1001           CIRCULAR             2.00     3.14     0.50     2.00        1    20.83
  PI1002           CIRCULAR             2.00     3.14     0.50     2.00        1    25.57
  PI10033          CIRCULAR             2.00     3.14     0.50     2.00        1    55.81
  PI10034          CIRCULAR             2.00     3.14     0.50     2.00        1    77.26
  PI10080          CIRCULAR             5.75    25.97     1.44     5.75        1   342.19
  PI10097          CIRCULAR             5.75    25.97     1.44     5.75        1   329.16
  PI10114          CIRCULAR             5.75    25.97     1.44     5.75        1   224.87
  PI10406          CIRCULAR             4.50    15.90     1.12     4.50        1   126.60
  PI10407          CIRCULAR             5.00    19.63     1.25     5.00        1   221.17
  PI10417          RECT_CLOSED          5.50    53.62     1.76     9.75        1   563.00
  PI10598          CIRCULAR             2.50     4.91     0.62     2.50        1    67.85
  PI10599          CIRCULAR             5.50    23.76     1.38     5.50        1   122.29
  PI10600          CIRCULAR             5.50    23.76     1.38     5.50        1   615.30
  PI10603          CIRCULAR             5.50    23.76     1.38     5.50        1   190.38
  PI10605          CIRCULAR             5.50    23.76     1.38     5.50        1   182.83
  PI10607          CIRCULAR             5.00    19.63     1.25     5.00        1   184.46
  PI10612          CIRCULAR             2.25     3.98     0.56     2.25        1    46.73
  PI10688          CIRCULAR             4.50    15.90     1.12     4.50        1   191.88
  PI10689          CIRCULAR             4.50    15.90     1.12     4.50        1   140.78
  PI10695          CIRCULAR             4.50    15.90     1.12     4.50        1   170.04
  PI10729          CIRCULAR             3.50     9.62     0.88     3.50        1    68.75
  PI10734          CIRCULAR             3.50     9.62     0.88     3.50        1    64.38
  PI10747          CIRCULAR             3.50     9.62     0.88     3.50        1    42.51
  PI10748          CIRCULAR             3.50     9.62     0.88     3.50        1    69.87
  PI10749          CIRCULAR             3.50     9.62     0.88     3.50        1    53.15
  PI6251           CIRCULAR             3.50     9.62     0.88     3.50        1   119.60
  PI6846           HORSESHOE           10.00    82.93     2.54    10.00        1  1154.05
  PI7219           CIRCULAR             6.00    28.27     1.50     6.00        1   352.40
  PI7221           CIRCULAR             6.00    28.27     1.50     6.00        1   408.81
  PI7222           CIRCULAR             6.50    33.18     1.62     6.50        1   376.22
  PI7344           RECT_CLOSED          5.50    53.62     1.76     9.75        1   354.24
  PI7398           CIRCULAR             9.00    63.62     2.25     9.00        1   702.35
  PI7873           RECT_CLOSED          5.50    53.62     1.76     9.75        1   261.58
  PI7877           RECT_CLOSED          5.50    53.62     1.76     9.75        1   408.93
  PI7882           RECT_CLOSED          5.50    53.62     1.76     9.75        1   568.44
  PI7891           RECT_CLOSED          5.50    53.62     1.76     9.75        1   414.99
  PI7898           RECT_CLOSED          5.50    53.62     1.76     9.75        1   356.93
  PI7905           RECT_CLOSED          5.50    53.62     1.76     9.75        1   488.13
  PI7917           RECT_CLOSED          5.50    53.62     1.76     9.75        1   498.80
  PI7931           CIRCULAR             3.00     7.07     0.75     3.00        1   129.54
  PI7934           CIRCULAR             2.00     3.14     0.50     2.00        1    84.37
  PI7937           CIRCULAR             4.00    12.57     1.00     4.00        1   137.58
  PI7944           CIRCULAR             2.00     3.14     0.50     2.00        1    48.49
  PI7945           CIRCULAR             1.00     0.79     0.25     1.00        1    10.43
  PI7956           CIRCULAR             4.00    12.57     1.00     4.00        1   167.97
  PI8012           CIRCULAR             2.00     3.14     0.50     2.00        1    92.08
  PI8017           CIRCULAR             4.50    15.90     1.12     4.50        1   274.08
  PI8022           CIRCULAR             4.50    15.90     1.12     4.50        1    56.71
  PI8023           CIRCULAR             4.00    12.57     1.00     4.00        1   107.37
  PI8128           CIRCULAR             6.50    33.18     1.62     6.50        1   364.38
  PI8150           CIRCULAR             6.50    33.18     1.62     6.50        1   424.86
  PI8165           CIRCULAR             5.75    25.97     1.44     5.75        1   240.08
  PI8187           CIRCULAR             5.75    25.97     1.44     5.75        1   228.64
  PI8201           CIRCULAR             5.75    25.97     1.44     5.75        1   196.19
  PI8214           CIRCULAR             5.75    25.97     1.44     5.75        1   203.69
  PI8529           CIRCULAR             2.00     3.14     0.50     2.00        1    57.55
  PI8640           CIRCULAR             7.00    38.48     1.75     7.00        1   439.90
  PI8641           CIRCULAR             7.00    38.48     1.75     7.00        1   427.84
  PI8643           CIRCULAR             7.00    38.48     1.75     7.00        1   588.69
  PI8713           CIRCULAR             1.75     2.41     0.44     1.75        1    20.28
  PI8779           CIRCULAR             5.50    23.76     1.38     5.50        1   348.20
  PI8780           CIRCULAR             5.50    23.76     1.38     5.50        1   264.55
  PI8781           CIRCULAR             5.50    23.76     1.38     5.50        1   276.32
  PI8782           CIRCULAR             5.50    23.76     1.38     5.50        1   331.89
  PI8783           CIRCULAR             6.00    28.27     1.50     6.00        1   314.32
  PI8798           CIRCULAR             6.00    28.27     1.50     6.00        1   348.21
  PI8816           CIRCULAR             1.25     1.23     0.31     1.25        1    48.66
  PI8820           CIRCULAR             2.50     4.91     0.62     2.50        1    84.22
  PI8853           CIRCULAR             4.50    15.90     1.12     4.50        1   596.11
  PI8895           CIRCULAR             4.50    15.90     1.12     4.50        1   632.90
  PI8896           CIRCULAR             4.50    15.90     1.12     4.50        1   215.42
  PI8900           CIRCULAR             4.50    15.90     1.12     4.50        1   210.62
  PI8926           CIRCULAR             4.50    15.90     1.12     4.50        1   214.10
  PI8927           CIRCULAR             3.50     9.62     0.88     3.50        1   140.86
  PI8928           CIRCULAR             4.50    15.90     1.12     4.50        1   192.24
  PI9053           CIRCULAR             8.00    50.27     2.00     8.00        1   637.70
  PI9054           CIRCULAR             8.00    50.27     2.00     8.00        1   595.94
  PI9055           CIRCULAR             8.00    50.27     2.00     8.00        1   594.50
  PI9056           CIRCULAR             8.00    50.27     2.00     8.00        1   601.41
  PI9063           CIRCULAR             6.50    33.18     1.62     6.50        1   366.58
  PI9086           CIRCULAR             4.50    15.90     1.12     4.50        1    84.30
  PI9087           CIRCULAR             4.50    15.90     1.12     4.50        1   420.32
  PI9088           CIRCULAR             4.50    15.90     1.12     4.50        1    99.02
  PI9433           ARCH                 7.26    65.78     2.17    11.50        1   718.70
  PI9434           ARCH                 7.26    65.78     2.17    11.50        1   717.68
  PI9435           ARCH                 7.26    65.78     2.17    11.50        1   637.34
  PI9436           ARCH                 7.26    65.78     2.17    11.50        1   670.79
  PI9437           CIRCULAR             9.00    63.62     2.25     9.00        1   804.57
  PI9438           CIRCULAR             9.00    63.62     2.25     9.00        1  1036.16
  PI9439           CIRCULAR             5.50    23.76     1.38     5.50        1   601.11
  PI9440           CIRCULAR             5.50    23.76     1.38     5.50        1   107.86
  PI9461           HORSESHOE            9.00    67.17     2.28     9.00        1   867.39
  PI9462           CIRCULAR             9.00    63.62     2.25     9.00        1   719.03
  PI9484           HORSESHOE            9.00    67.17     2.28     9.00        1   849.53
  PI9490           CIRCULAR             5.50    23.76     1.38     5.50        1   155.33
  PI9527           RECT_CLOSED          5.50    53.62     1.76     9.75        1   457.31
  PI9530           RECT_CLOSED          5.50    53.62     1.76     9.75        1  1195.59
  PI9533           RECT_CLOSED          5.50    53.62     1.76     9.75        1   429.80
  PI9641           CIRCULAR             7.00    38.48     1.75     7.00        1   331.55
  PI9642           CIRCULAR             7.00    38.48     1.75     7.00        1   543.77
  PI9649           CIRCULAR             2.00     3.14     0.50     2.00        1    54.01
  PI9658           CIRCULAR             5.50    23.76     1.38     5.50        1  2629.89
  PI9662           CIRCULAR             7.00    38.48     1.75     7.00        1   446.80
  PI9667           CIRCULAR             4.50    15.90     1.12     4.50        1  1601.89
  PI9669           CIRCULAR             4.00    12.57     1.00     4.00        1   127.16
  PI9675           CIRCULAR             4.00    12.57     1.00     4.00        1   156.54
  PI9676           CIRCULAR             4.00    12.57     1.00     4.00        1   133.19
  PI9677           CIRCULAR             4.00    12.57     1.00     4.00        1    94.74
  PI9691           CIRCULAR             4.00    12.57     1.00     4.00        1    75.12
  PI9697           CIRCULAR             5.50    23.76     1.38     5.50        1   213.76
  PI9702           CIRCULAR             5.00    19.63     1.25     5.00        1   316.78
  PI9768           CIRCULAR             2.00     3.14     0.50     2.00        1     8.41
  PI9773           CIRCULAR             1.75     2.41     0.44     1.75        1    11.67
  PI9783           RECT_CLOSED          5.50    53.62     1.76     9.75        1   482.02
  PI9799           CIRCULAR             5.75    25.97     1.44     5.75        1   326.89
  PI9802           CIRCULAR             5.75    25.97     1.44     5.75        1   332.21
  PI9820           CIRCULAR             5.75    25.97     1.44     5.75        1   319.71
  WNC01            WNC01               12.00   671.80    14.08   118.00        1  4772.37
  WNC02            WNC02               12.00  1063.80    17.27   200.00        1  8649.42
  WNC03            WNC03               12.00  1843.90    20.31   393.00        1 16802.18
  WNC04            WNC04               12.00   745.70    14.19   137.00        1  5338.81
  WNC05            WNC05               12.00   591.60    17.11    69.00        1  4730.71
  WNC06            WNC06               12.00   811.60    23.42   104.00        1  8201.64
  WNC07            WNC07               12.00   429.50    10.97    52.00        1  2528.36
  TJHS_OF          CIRCULAR             2.00     3.14     0.50     2.00        1    22.85
  
  
  ****************
  Transect Summary
  ****************

  Transect JB_NC01
  Area:  
              0.0038     0.0079     0.0122     0.0169     0.0219 
              0.0272     0.0333     0.0404     0.0484     0.0573 
              0.0671     0.0777     0.0888     0.1004     0.1125 
              0.1251     0.1382     0.1517     0.1655     0.1797 
              0.1943     0.2092     0.2245     0.2401     0.2561 
              0.2725     0.2892     0.3063     0.3237     0.3416 
              0.3599     0.3786     0.3977     0.4173     0.4373 
              0.4578     0.4788     0.5003     0.5223     0.5458 
              0.5712     0.5985     0.6279     0.6593     0.6976 
              0.7454     0.7995     0.8600     0.9268     1.0000 
  Hrad:  
              0.0387     0.0745     0.1081     0.1399     0.1702 
              0.1901     0.2007     0.2135     0.2279     0.2435 
              0.2598     0.2857     0.3121     0.3380     0.3633 
              0.3883     0.4142     0.4423     0.4700     0.4972 
              0.5241     0.5506     0.5768     0.6026     0.6282 
              0.6535     0.6785     0.7030     0.7259     0.7486 
              0.7712     0.7937     0.8160     0.8359     0.8545 
              0.8732     0.8919     0.9107     0.9318     0.9683 
              1.0003     1.0283     1.0526     1.0737     1.0778 
              1.0711     1.0585     1.0420     1.0231     1.0000 
  Width: 
              0.0475     0.0510     0.0546     0.0581     0.0617 
              0.0686     0.0798     0.0910     0.1022     0.1133 
              0.1245     0.1311     0.1371     0.1431     0.1491 
              0.1551     0.1605     0.1649     0.1693     0.1736 
              0.1780     0.1824     0.1867     0.1911     0.1955 
              0.1998     0.2042     0.2087     0.2136     0.2185 
              0.2234     0.2283     0.2332     0.2388     0.2448 
              0.2508     0.2568     0.2628     0.2708     0.2948 
              0.3188     0.3428     0.3668     0.3908     0.5382 
              0.6151     0.6920     0.7689     0.8458     1.0000 

  Transect JB_NC01a
  Area:  
              0.0120     0.0242     0.0367     0.0493     0.0621 
              0.0751     0.0884     0.1019     0.1156     0.1298 
              0.1442     0.1589     0.1739     0.1892     0.2048 
              0.2206     0.2366     0.2529     0.2694     0.2861 
              0.3034     0.3210     0.3392     0.3578     0.3769 
              0.3965     0.4166     0.4372     0.4584     0.4802 
              0.5025     0.5253     0.5484     0.5719     0.5957 
              0.6198     0.6442     0.6689     0.6940     0.7195 
              0.7453     0.7716     0.7982     0.8253     0.8528 
              0.8810     0.9098     0.9393     0.9693     1.0000 
  Hrad:  
              0.0300     0.0587     0.0862     0.1126     0.1380 
              0.1626     0.1863     0.2085     0.2299     0.2508 
              0.2711     0.2910     0.3104     0.3299     0.3492 
              0.3681     0.3866     0.4046     0.4223     0.4374 
              0.4511     0.4648     0.4784     0.4920     0.5055 
              0.5254     0.5503     0.5743     0.5975     0.6200 
              0.6417     0.6629     0.6840     0.7049     0.7256 
              0.7461     0.7664     0.7865     0.8063     0.8257 
              0.8450     0.8639     0.8826     0.9010     0.9186 
              0.9357     0.9523     0.9686     0.9845     1.0000 
  Width: 
              0.3911     0.3977     0.4042     0.4107     0.4172 
              0.4237     0.4302     0.4400     0.4500     0.4601 
              0.4701     0.4801     0.4902     0.4982     0.5058 
              0.5133     0.5208     0.5283     0.5359     0.5483 
              0.5634     0.5784     0.5935     0.6086     0.6236 
              0.6400     0.6576     0.6751     0.6927     0.7102 
              0.7278     0.7424     0.7524     0.7625     0.7725 
              0.7826     0.7926     0.8033     0.8158     0.8284 
              0.8409     0.8535     0.8660     0.8796     0.8996 
              0.9197     0.9398     0.9599     0.9799     1.0000 

  Transect JB_NC02
  Area:  
              0.0032     0.0065     0.0100     0.0136     0.0174 
              0.0214     0.0256     0.0300     0.0346     0.0395 
              0.0445     0.0498     0.0553     0.0612     0.0673 
              0.0739     0.0807     0.0879     0.0955     0.1042 
              0.1145     0.1263     0.1396     0.1545     0.1709 
              0.1882     0.2058     0.2238     0.2421     0.2607 
              0.2797     0.3044     0.3318     0.3604     0.3901 
              0.4209     0.4529     0.4869     0.5234     0.5612 
              0.6004     0.6410     0.6830     0.7264     0.7706 
              0.8154     0.8607     0.9066     0.9530     1.0000 
  Hrad:  
              0.0489     0.0950     0.1389     0.1807     0.2209 
              0.2596     0.2948     0.3282     0.3606     0.3923 
              0.4234     0.4538     0.4790     0.4998     0.5209 
              0.5423     0.5641     0.5861     0.6146     0.6539 
              0.6824     0.7026     0.7167     0.7265     0.7334 
              0.7457     0.7615     0.7796     0.7994     0.8206 
              0.8427     0.8447     0.8442     0.8466     0.8513 
              0.8576     0.8652     0.8251     0.8323     0.8403 
              0.8490     0.8582     0.8679     0.8800     0.8984 
              0.9176     0.9375     0.9579     0.9788     1.0000 
  Width: 
              0.0685     0.0720     0.0756     0.0792     0.0828 
              0.0864     0.0907     0.0954     0.1000     0.1047 
              0.1094     0.1140     0.1199     0.1271     0.1342 
              0.1414     0.1485     0.1557     0.1691     0.2013 
              0.2336     0.2658     0.2980     0.3302     0.3624 
              0.3696     0.3767     0.3839     0.3911     0.3982 
              0.4054     0.5683     0.5923     0.6163     0.6403 
              0.6643     0.6882     0.7553     0.7851     0.8148 
              0.8445     0.8742     0.9039     0.9291     0.9409 
              0.9528     0.9646     0.9764     0.9882     1.0000 

  Transect JB_NC03
  Area:  
              0.0058     0.0118     0.0181     0.0247     0.0315 
              0.0385     0.0458     0.0533     0.0611     0.0692 
              0.0775     0.0862     0.0951     0.1043     0.1138 
              0.1236     0.1338     0.1442     0.1550     0.1662 
              0.1777     0.1896     0.2018     0.2144     0.2273 
              0.2405     0.2540     0.2679     0.2822     0.2970 
              0.3123     0.3281     0.3466     0.3692     0.3957 
              0.4261     0.4598     0.4945     0.5298     0.5657 
              0.6024     0.6401     0.6790     0.7192     0.7606 
              0.8034     0.8487     0.8966     0.9470     1.0000 
  Hrad:  
              0.0423     0.0825     0.1208     0.1574     0.1926 
              0.2265     0.2593     0.2911     0.3220     0.3510 
              0.3793     0.4069     0.4339     0.4600     0.4847 
              0.5090     0.5331     0.5569     0.5792     0.6011 
              0.6229     0.6446     0.6667     0.6898     0.7127 
              0.7355     0.7581     0.7756     0.7914     0.8075 
              0.8239     0.8447     0.8760     0.8951     0.9043 
              0.9060     0.9057     0.9097     0.9167     0.9260 
              0.9369     0.9470     0.9574     0.9680     0.9789 
              0.9864     0.9905     0.9941     0.9972     1.0000 
  Width: 
              0.1091     0.1137     0.1183     0.1229     0.1275 
              0.1321     0.1367     0.1413     0.1459     0.1510 
              0.1563     0.1616     0.1668     0.1723     0.1782 
              0.1841     0.1900     0.1959     0.2024     0.2090 
              0.2155     0.2221     0.2285     0.2344     0.2403 
              0.2462     0.2521     0.2599     0.2685     0.2770 
              0.2856     0.3058     0.3787     0.4516     0.5245 
              0.5974     0.6318     0.6443     0.6568     0.6693 
              0.6827     0.7057     0.7287     0.7516     0.7746 
              0.8109     0.8581     0.9054     0.9527     1.0000 

  Transect JB_NC04
  Area:  
              0.0010     0.0023     0.0039     0.0058     0.0097 
              0.0166     0.0264     0.0390     0.0525     0.0664 
              0.0805     0.0948     0.1095     0.1244     0.1395 
              0.1550     0.1707     0.1867     0.2031     0.2198 
              0.2368     0.2543     0.2722     0.2905     0.3096 
              0.3295     0.3500     0.3711     0.3927     0.4148 
              0.4374     0.4603     0.4835     0.5070     0.5308 
              0.5547     0.5789     0.6034     0.6280     0.6529 
              0.6779     0.7032     0.7337     0.7671     0.8014 
              0.8366     0.8761     0.9168     0.9581     1.0000 
  Hrad:  
              0.0288     0.0526     0.0738     0.0783     0.0590 
              0.0650     0.0764     0.0951     0.1255     0.1553 
              0.1845     0.2134     0.2418     0.2699     0.2975 
              0.3241     0.3501     0.3757     0.4009     0.4314 
              0.4627     0.4931     0.5227     0.5511     0.5781 
              0.6039     0.6285     0.6527     0.6764     0.6995 
              0.7223     0.7455     0.7686     0.7916     0.8146 
              0.8378     0.8610     0.8841     0.9072     0.9302 
              0.9531     0.9760     0.9888     0.9977     1.0071 
              1.0166     0.9846     0.9930     1.0023     1.0000 
  Width: 
              0.0252     0.0311     0.0371     0.0519     0.1154 
              0.1789     0.2424     0.2882     0.2942     0.3001 
              0.3061     0.3119     0.3175     0.3231     0.3288 
              0.3350     0.3415     0.3481     0.3547     0.3627 
              0.3711     0.3796     0.3880     0.4028     0.4182 
              0.4335     0.4485     0.4591     0.4697     0.4804 
              0.4899     0.4959     0.5018     0.5078     0.5132 
              0.5179     0.5226     0.5273     0.5320     0.5367 
              0.5414     0.5461     0.7095     0.7280     0.7465 
              0.7649     0.8695     0.8817     0.8939     1.0000 

  Transect JB_NC05
  Area:  
              0.0081     0.0165     0.0252     0.0342     0.0435 
              0.0532     0.0631     0.0735     0.0842     0.0952 
              0.1066     0.1183     0.1305     0.1429     0.1557 
              0.1689     0.1826     0.1968     0.2115     0.2266 
              0.2422     0.2583     0.2750     0.2922     0.3100 
              0.3283     0.3472     0.3666     0.3867     0.4074 
              0.4287     0.4508     0.4737     0.4974     0.5218 
              0.5470     0.5729     0.5996     0.6271     0.6554 
              0.6845     0.7147     0.7460     0.7784     0.8118 
              0.8465     0.8827     0.9203     0.9594     1.0000 
  Hrad:  
              0.0370     0.0720     0.1054     0.1372     0.1678 
              0.1964     0.2240     0.2507     0.2766     0.3018 
              0.3262     0.3500     0.3732     0.3961     0.4184 
              0.4376     0.4567     0.4756     0.4944     0.5131 
              0.5301     0.5471     0.5641     0.5812     0.5983 
              0.6138     0.6294     0.6452     0.6611     0.6770 
              0.6883     0.7001     0.7123     0.7248     0.7377 
              0.7509     0.7643     0.7780     0.7920     0.8062 
              0.8134     0.8214     0.8300     0.8393     0.8491 
              0.8835     0.9159     0.9465     0.9753     1.0000 
  Width: 
              0.0417     0.0432     0.0447     0.0462     0.0477 
              0.0495     0.0513     0.0531     0.0548     0.0566 
              0.0584     0.0602     0.0620     0.0638     0.0656 
              0.0680     0.0703     0.0727     0.0751     0.0775 
              0.0802     0.0829     0.0855     0.0882     0.0909 
              0.0939     0.0969     0.0999     0.1028     0.1058 
              0.1097     0.1136     0.1174     0.1213     0.1252 
              0.1291     0.1329     0.1368     0.1407     0.1446 
              0.1499     0.1553     0.1607     0.1660     0.1714 
              0.1788     0.1863     0.1937     0.2012     1.0000 

  Transect JB_NC06
  Area:  
              0.0084     0.0176     0.0277     0.0386     0.0505 
              0.0629     0.0759     0.0892     0.1030     0.1172 
              0.1318     0.1467     0.1619     0.1774     0.1933 
              0.2096     0.2262     0.2432     0.2607     0.2785 
              0.2967     0.3152     0.3340     0.3532     0.3727 
              0.3925     0.4127     0.4333     0.4542     0.4754 
              0.4971     0.5191     0.5416     0.5644     0.5877 
              0.6113     0.6355     0.6601     0.6851     0.7107 
              0.7368     0.7635     0.7909     0.8190     0.8477 
              0.8770     0.9069     0.9373     0.9684     1.0000 
  Hrad:  
              0.0262     0.0500     0.0721     0.0928     0.1124 
              0.1351     0.1571     0.1784     0.1992     0.2195 
              0.2409     0.2618     0.2824     0.3026     0.3224 
              0.3408     0.3589     0.3768     0.3944     0.4118 
              0.4305     0.4489     0.4672     0.4852     0.5030 
              0.5199     0.5366     0.5532     0.5697     0.5861 
              0.6122     0.6376     0.6625     0.6868     0.7106 
              0.7338     0.7564     0.7785     0.8001     0.8212 
              0.8416     0.8613     0.8803     0.8988     0.9167 
              0.9341     0.9511     0.9678     0.9841     1.0000 
  Width: 
              0.2757     0.3028     0.3299     0.3571     0.3842 
              0.3977     0.4113     0.4249     0.4384     0.4520 
              0.4621     0.4723     0.4825     0.4927     0.5028 
              0.5153     0.5277     0.5401     0.5525     0.5650 
              0.5751     0.5853     0.5955     0.6056     0.6158 
              0.6271     0.6384     0.6497     0.6610     0.6723 
              0.6847     0.6972     0.7096     0.7220     0.7345 
              0.7492     0.7638     0.7785     0.7932     0.8079 
              0.8282     0.8486     0.8689     0.8893     0.9096 
              0.9277     0.9458     0.9638     0.9819     1.0000 

  Transect JB_NC07a
  Area:  
              0.0035     0.0070     0.0107     0.0145     0.0183 
              0.0223     0.0263     0.0306     0.0350     0.0397 
              0.0445     0.0495     0.0617     0.0810     0.1005 
              0.1204     0.1404     0.1608     0.1814     0.2022 
              0.2234     0.2447     0.2664     0.2883     0.3104 
              0.3328     0.3556     0.3788     0.4022     0.4260 
              0.4501     0.4747     0.4996     0.5251     0.5510 
              0.5774     0.6043     0.6317     0.6595     0.6879 
              0.7168     0.7461     0.7760     0.8064     0.8373 
              0.8688     0.9008     0.9333     0.9664     1.0000 
  Hrad:  
              0.0292     0.0575     0.0850     0.1118     0.1378 
              0.1632     0.1852     0.2057     0.2257     0.2452 
              0.2643     0.2831     0.0950     0.1231     0.1509 
              0.1782     0.2053     0.2321     0.2585     0.2846 
              0.3105     0.3361     0.3614     0.3865     0.4113 
              0.4406     0.4692     0.4974     0.5250     0.5523 
              0.5791     0.6054     0.6311     0.6563     0.6810 
              0.7052     0.7289     0.7521     0.7749     0.7973 
              0.8192     0.8408     0.8620     0.8828     0.9032 
              0.9232     0.9428     0.9622     0.9812     1.0000 
  Width: 
              0.1040     0.1068     0.1096     0.1124     0.1152 
              0.1180     0.1229     0.1285     0.1341     0.1397 
              0.1453     0.1509     0.5661     0.5737     0.5813 
              0.5889     0.5966     0.6042     0.6118     0.6195 
              0.6271     0.6347     0.6423     0.6500     0.6576 
              0.6675     0.6775     0.6875     0.6974     0.7074 
              0.7174     0.7304     0.7444     0.7584     0.7724 
              0.7864     0.8004     0.8149     0.8298     0.8447 
              0.8597     0.8746     0.8896     0.9047     0.9206 
              0.9365     0.9524     0.9682     0.9841     1.0000 

  Transect tempJBT_NC01
  Area:  
              0.0012     0.0024     0.0036     0.0049     0.0063 
              0.0077     0.0092     0.0107     0.0123     0.0139 
              0.0156     0.0173     0.0191     0.0209     0.0229 
              0.0250     0.0272     0.0295     0.0320     0.0363 
              0.0478     0.0610     0.0761     0.0929     0.1115 
              0.1318     0.1534     0.1760     0.1997     0.2243 
              0.2500     0.2767     0.3045     0.3337     0.3641 
              0.3957     0.4286     0.4628     0.4986     0.5363 
              0.5759     0.6174     0.6608     0.7061     0.7527 
              0.8003     0.8488     0.8983     0.9487     1.0000 
  Hrad:  
              0.0101     0.0194     0.0282     0.0364     0.0441 
              0.0514     0.0584     0.0652     0.0716     0.0779 
              0.0839     0.0898     0.0955     0.1003     0.1029 
              0.1058     0.1089     0.1122     0.1157     0.1140 
              0.1128     0.1257     0.1446     0.1668     0.1909 
              0.2174     0.2511     0.2855     0.3202     0.3549 
              0.3896     0.4239     0.4571     0.4901     0.5228 
              0.5551     0.5872     0.6185     0.6455     0.6725 
              0.6992     0.7258     0.7523     0.7790     0.8162 
              0.8532     0.8902     0.9269     0.9636     1.0000 
  Width: 
              0.0228     0.0238     0.0248     0.0258     0.0268 
              0.0278     0.0288     0.0299     0.0309     0.0319 
              0.0329     0.0340     0.0350     0.0364     0.0390 
              0.0416     0.0441     0.0467     0.0493     0.2048 
              0.2390     0.2732     0.3074     0.3417     0.3759 
              0.4077     0.4272     0.4468     0.4663     0.4859 
              0.5055     0.5257     0.5501     0.5746     0.5990 
              0.6235     0.6479     0.6734     0.7099     0.7465 
              0.7830     0.8196     0.8561     0.8919     0.9099 
              0.9279     0.9459     0.9640     0.9820     1.0000 

  Transect tempJBT_NC02
  Area:  
              0.0017     0.0038     0.0061     0.0087     0.0117 
              0.0149     0.0185     0.0223     0.0264     0.0308 
              0.0355     0.0405     0.0458     0.0513     0.0571 
              0.0633     0.0697     0.0764     0.0834     0.0907 
              0.0983     0.1063     0.1146     0.1232     0.1322 
              0.1424     0.1538     0.1663     0.1800     0.1949 
              0.2109     0.2378     0.2695     0.3029     0.3380 
              0.3748     0.4133     0.4535     0.4946     0.5368 
              0.5799     0.6241     0.6692     0.7152     0.7618 
              0.8087     0.8560     0.9037     0.9517     1.0000 
  Hrad:  
              0.0134     0.0249     0.0354     0.0451     0.0542 
              0.0630     0.0716     0.0801     0.0883     0.0964 
              0.1043     0.1121     0.1198     0.1275     0.1350 
              0.1425     0.1500     0.1574     0.1646     0.1710 
              0.1775     0.1840     0.1906     0.1972     0.2039 
              0.2165     0.2287     0.2410     0.2540     0.2679 
              0.2829     0.2728     0.2896     0.3117     0.3375 
              0.3659     0.3962     0.4312     0.4729     0.5167 
              0.5616     0.6072     0.6534     0.7004     0.7492 
              0.7985     0.8484     0.8987     0.9492     1.0000 
  Width: 
              0.0388     0.0450     0.0513     0.0575     0.0638 
              0.0700     0.0760     0.0819     0.0878     0.0937 
              0.0996     0.1055     0.1114     0.1173     0.1232 
              0.1291     0.1350     0.1409     0.1471     0.1540 
              0.1610     0.1679     0.1748     0.1818     0.1887 
              0.2217     0.2460     0.2703     0.2946     0.3189 
              0.3432     0.6358     0.6709     0.7059     0.7410 
              0.7761     0.8111     0.8387     0.8588     0.8790 
              0.8991     0.9192     0.9393     0.9563     0.9636 
              0.9708     0.9781     0.9854     0.9927     1.0000 

  Transect JBT_NC03
  Area:  
              0.0019     0.0038     0.0058     0.0078     0.0100 
              0.0121     0.0144     0.0168     0.0192     0.0217 
              0.0244     0.0272     0.0302     0.0333     0.0366 
              0.0399     0.0435     0.0482     0.0542     0.0616 
              0.0703     0.0804     0.0919     0.1047     0.1188 
              0.1344     0.1514     0.1698     0.1896     0.2109 
              0.2337     0.2578     0.2834     0.3105     0.3394 
              0.3702     0.4027     0.4371     0.4732     0.5112 
              0.5510     0.5952     0.6452     0.6953     0.7457 
              0.7962     0.8469     0.8978     0.9488     1.0000 
  Hrad:  
              0.0615     0.1200     0.1758     0.2293     0.2808 
              0.3304     0.3783     0.4248     0.4629     0.4970 
              0.5306     0.5639     0.5968     0.6296     0.6620 
              0.6943     0.7339     0.7691     0.7821     0.7810 
              0.7721     0.7602     0.7480     0.7372     0.7285 
              0.7215     0.7170     0.7147     0.7145     0.7163 
              0.7198     0.7249     0.7315     0.7361     0.7404 
              0.7458     0.7523     0.7598     0.7683     0.7776 
              0.7876     0.7708     0.7933     0.8185     0.8457 
              0.8745     0.9045     0.9356     0.9674     1.0000 
  Width: 
              0.0368     0.0381     0.0395     0.0408     0.0422 
              0.0435     0.0449     0.0462     0.0484     0.0511 
              0.0538     0.0565     0.0592     0.0619     0.0646 
              0.0672     0.0778     0.1043     0.1307     0.1571 
              0.1835     0.2099     0.2363     0.2628     0.2892 
[...]
  CUL_JB02.1              1.00   0.00  0.00  0.00  1.00  0.00  0.00  0.00  0.66  0.00
  CUL_JB03.1              1.00   0.00  0.01  0.00  0.17  0.81  0.00  0.00  0.63  0.00
  CUL_JB03.2              1.00   0.82  0.01  0.00  0.08  0.03  0.00  0.07  0.05  0.00
  CUL_JB04.1              1.00   0.00  0.00  0.00  0.99  0.00  0.00  0.00  0.55  0.00
  CUL_JBT01.1             1.00   0.00  0.02  0.00  0.98  0.00  0.00  0.00  0.55  0.00
  CUL_JBT01.2             1.00   0.87  0.00  0.00  0.13  0.00  0.00  0.00  0.00  0.00
  CUL_JBT02.1             1.00   0.01  0.00  0.00  0.97  0.01  0.00  0.00  0.00  0.00
  CUL_JBT02.2             1.00   0.01  0.00  0.00  0.97  0.01  0.00  0.00  0.00  0.00
  CUL_JBT02.3             1.00   0.01  0.00  0.00  0.97  0.01  0.00  0.00  0.00  0.00
  CUL_JBT03               1.00   0.00  0.00  0.00  0.87  0.12  0.00  0.00  0.00  0.00
  CUL_JBT04.1             1.00   0.01  0.00  0.00  0.58  0.41  0.00  0.00  0.00  0.00
  CUL_JBT04.2             1.00   0.63  0.00  0.00  0.04  0.00  0.00  0.32  0.00  0.00
  NC_JB01                 1.00   0.00  0.03  0.00  0.97  0.00  0.00  0.00  0.86  0.00
  NC_JB01a                1.00   0.01  0.00  0.00  0.99  0.00  0.00  0.00  0.00  0.00
  NC_JB02                 1.00   0.00  0.00  0.00  1.00  0.00  0.00  0.00  0.17  0.00
  NC_JB03                 1.00   0.00  0.00  0.00  1.00  0.00  0.00  0.00  0.92  0.00
  NC_JB04                 1.00   0.00  0.01  0.00  0.99  0.00  0.00  0.00  0.12  0.00
  NC_JB05                 1.00   0.00  0.00  0.00  1.00  0.00  0.00  0.00  0.27  0.00
  NC_JB06                 1.00   0.00  0.00  0.00  1.00  0.00  0.00  0.00  0.00  0.00
  NC_JB07                 1.00   0.00  0.02  0.00  0.98  0.00  0.00  0.00  0.86  0.00
  NC_JB07a                1.00   0.00  0.00  0.00  1.00  0.00  0.00  0.00  0.76  0.00
  NC_JB08a                1.00   0.00  0.00  0.00  1.00  0.00  0.00  0.00  0.01  0.00
  NC_JB08b                1.00   0.00  0.00  0.00  1.00  0.00  0.00  0.00  0.00  0.00
  NC_JBT03                1.00   0.00  0.00  0.00  1.00  0.00  0.00  0.00  0.56  0.00
  NC_JBT04                1.00   0.00  0.02  0.00  0.98  0.00  0.00  0.00  0.16  0.00
  NC_JBT05                1.00   0.01  0.00  0.00  0.99  0.00  0.00  0.00  0.93  0.00
  NC_JBT06                1.00   0.01  0.00  0.00  0.39  0.60  0.00  0.00  0.36  0.00
  PI1001                  1.00   0.00  0.00  0.00  0.95  0.05  0.00  0.00  0.69  0.00
  PI1002                  1.00   0.00  0.00  0.00  0.42  0.58  0.00  0.00  0.89  0.00
  PI10033                 1.00   0.00  0.97  0.00  0.02  0.00  0.00  0.00  0.85  0.00
  PI10034                 1.00   0.00  0.99  0.00  0.00  0.00  0.00  0.00  0.86  0.00
  PI10080                 1.00   0.01  0.00  0.00  0.40  0.60  0.00  0.00  0.90  0.00
  PI10097                 1.00   0.01  0.00  0.00  0.39  0.61  0.00  0.00  0.12  0.00
  PI10114                 1.00   0.00  0.00  0.00  0.66  0.33  0.00  0.00  0.12  0.00
  PI10406                 1.00   0.00  0.74  0.00  0.26  0.00  0.00  0.00  0.85  0.00
  PI10407                 1.00   0.00  0.00  0.00  0.43  0.57  0.00  0.00  0.75  0.00
  PI10417                 1.00   0.01  0.03  0.00  0.96  0.00  0.00  0.00  0.86  0.00
  PI10598                 1.00   0.00  0.00  0.00  0.96  0.04  0.00  0.00  0.97  0.00
  PI10599                 1.00   0.00  0.00  0.00  0.65  0.34  0.00  0.00  0.00  0.00
  PI10600                 1.00   0.00  0.00  0.00  0.84  0.15  0.00  0.00  0.95  0.00
  PI10603                 1.00   0.00  0.00  0.00  0.81  0.18  0.00  0.00  0.83  0.00
  PI10605                 1.00   0.00  0.00  0.00  0.98  0.02  0.00  0.00  0.13  0.00
  PI10607                 1.00   0.00  0.00  0.00  0.74  0.26  0.00  0.00  0.87  0.00
  PI10612                 1.00   0.00  0.00  0.00  0.03  0.00  0.00  0.97  0.00  0.00
  PI10688                 1.00   0.00  0.00  0.00  0.77  0.22  0.00  0.00  0.78  0.00
  PI10689                 1.00   0.01  0.00  0.00  0.47  0.52  0.00  0.00  0.20  0.00
  PI10695                 1.00   0.01  0.00  0.00  0.56  0.43  0.00  0.00  0.90  0.00
  PI10729                 1.00   0.01  0.00  0.00  0.51  0.48  0.00  0.00  0.19  0.00
  PI10734                 1.00   0.00  0.00  0.00  0.76  0.23  0.00  0.00  0.65  0.00
  PI10747                 1.00   0.00  0.00  0.00  1.00  0.00  0.00  0.00  0.00  0.00
  PI10748                 1.00   0.00  0.00  0.00  1.00  0.00  0.00  0.00  0.71  0.00
  PI10749                 1.00   0.00  0.00  0.00  1.00  0.00  0.00  0.00  0.00  0.00
  PI6251                  1.00   1.00  0.00  0.00  0.00  0.00  0.00  0.00  0.00  0.00
  PI6846                  1.00   0.00  0.00  0.00  0.68  0.32  0.00  0.00  0.60  0.00
  PI7219                  1.00   0.00  0.00  0.00  0.40  0.60  0.00  0.00  0.13  0.00
  PI7221                  1.00   0.00  0.00  0.00  0.43  0.57  0.00  0.00  0.86  0.00
  PI7222                  1.00   0.00  0.00  0.00  0.64  0.36  0.00  0.00  0.88  0.00
  PI7344                  1.00   0.04  0.00  0.00  0.96  0.00  0.00  0.00  0.00  0.00
  PI7398                  1.00   0.00  0.00  0.00  0.60  0.40  0.00  0.00  0.09  0.00
  PI7873                  1.00   0.03  0.00  0.00  0.97  0.00  0.00  0.00  0.00  0.00
  PI7877                  1.00   0.03  0.00  0.00  0.97  0.00  0.00  0.00  0.00  0.00
  PI7882                  1.00   0.04  0.00  0.00  0.96  0.00  0.00  0.00  0.65  0.00
  PI7891                  1.00   0.02  0.00  0.00  0.98  0.00  0.00  0.00  0.83  0.00
  PI7898                  1.00   0.02  0.00  0.00  0.98  0.00  0.00  0.00  0.00  0.00
  PI7905                  1.00   0.01  0.00  0.00  0.99  0.00  0.00  0.00  0.86  0.00
  PI7917                  1.00   0.00  0.00  0.00  0.99  0.00  0.00  0.00  0.79  0.00
  PI7931                  1.00   1.00  0.00  0.00  0.00  0.00  0.00  0.00  0.00  0.00
  PI7934                  1.00   1.00  0.00  0.00  0.00  0.00  0.00  0.00  0.00  0.00
  PI7937                  1.00   1.00  0.00  0.00  0.00  0.00  0.00  0.00  0.00  0.00
  PI7944                  1.00   1.00  0.00  0.00  0.00  0.00  0.00  0.00  0.00  0.00
  PI7945                  1.00   1.00  0.00  0.00  0.00  0.00  0.00  0.00  0.00  0.00
  PI7956                  1.00   1.00  0.00  0.00  0.00  0.00  0.00  0.00  0.00  0.00
  PI8012                  1.00   0.13  0.87  0.00  0.00  0.00  0.00  0.00  0.00  0.00
  PI8017                  1.00   0.13  0.85  0.00  0.02  0.00  0.00  0.00  0.86  0.00
  PI8022                  1.00   0.13  0.00  0.00  0.87  0.00  0.00  0.00  0.00  0.00
  PI8023                  1.00   0.98  0.02  0.00  0.00  0.00  0.00  0.00  0.00  0.00
  PI8128                  1.00   0.00  0.00  0.00  0.65  0.34  0.00  0.00  0.06  0.00
  PI8150                  1.00   0.00  0.00  0.00  0.64  0.35  0.00  0.00  0.93  0.00
  PI8165                  1.00   0.00  0.00  0.00  0.75  0.24  0.00  0.00  0.82  0.00
  PI8187                  1.00   0.00  0.00  0.00  0.74  0.26  0.00  0.00  0.15  0.00
  PI8201                  1.00   0.00  0.00  0.00  0.89  0.10  0.00  0.00  0.00  0.00
  PI8214                  1.00   0.00  0.00  0.00  1.00  0.00  0.00  0.00  0.82  0.00
  PI8529                  1.00   0.00  0.97  0.00  0.02  0.00  0.00  0.00  0.86  0.00
  PI8640                  1.00   0.00  0.00  0.00  0.62  0.37  0.00  0.00  0.13  0.00
  PI8641                  1.00   0.00  0.00  0.00  0.72  0.28  0.00  0.00  0.87  0.00
  PI8643                  1.00   0.00  0.00  0.00  1.00  0.00  0.00  0.00  1.00  0.00
  PI8713                  1.00   1.00  0.00  0.00  0.00  0.00  0.00  0.00  0.00  0.00
  PI8779                  1.00   1.00  0.00  0.00  0.00  0.00  0.00  0.00  0.00  0.00
  PI8780                  1.00   1.00  0.00  0.00  0.00  0.00  0.00  0.00  0.00  0.00
  PI8781                  1.00   1.00  0.00  0.00  0.00  0.00  0.00  0.00  0.00  0.00
  PI8782                  1.00   0.80  0.20  0.00  0.00  0.00  0.00  0.00  0.00  0.00
  PI8783                  1.00   0.00  0.80  0.00  0.20  0.00  0.00  0.00  0.74  0.00
  PI8798                  1.00   0.00  0.00  0.00  0.64  0.36  0.00  0.00  0.94  0.00
  PI8816                  1.00   0.00  1.00  0.00  0.00  0.00  0.00  0.00  0.00  0.00
  PI8820                  1.00   0.00  1.00  0.00  0.00  0.00  0.00  0.00  0.00  0.00
  PI8853                  1.00   0.00  0.99  0.00  0.01  0.00  0.00  0.00  0.86  0.00
  PI8895                  1.00   0.00  0.00  0.00  0.01  0.98  0.00  0.00  0.96  0.00
  PI8896                  1.00   0.00  0.00  0.00  0.01  0.98  0.00  0.00  0.00  0.00
  PI8900                  1.00   0.00  0.00  0.00  0.22  0.78  0.00  0.00  0.94  0.00
  PI8926                  1.00   0.00  0.00  0.00  0.17  0.83  0.00  0.00  0.73  0.00
  PI8927                  1.00   0.00  0.81  0.00  0.18  0.00  0.00  0.00  0.74  0.00
  PI8928                  1.00   0.00  0.00  0.00  0.18  0.82  0.00  0.00  0.02  0.00
  PI9053                  1.00   0.00  0.00  0.00  0.68  0.32  0.00  0.00  0.85  0.00
  PI9054                  1.00   0.00  0.00  0.00  0.97  0.03  0.00  0.00  0.83  0.00
  PI9055                  1.00   0.00  0.00  0.00  1.00  0.00  0.00  0.00  0.01  0.00
  PI9056                  1.00   0.00  0.00  0.00  1.00  0.00  0.00  0.00  0.60  0.00
  PI9063                  1.00   0.00  0.00  0.00  0.60  0.39  0.00  0.00  0.05  0.00
  PI9086                  1.00   0.93  0.02  0.00  0.05  0.00  0.00  0.00  0.83  0.00
  PI9087                  1.00   0.95  0.05  0.00  0.00  0.00  0.00  0.00  0.00  0.00
  PI9088                  1.00   1.00  0.00  0.00  0.00  0.00  0.00  0.00  0.00  0.00
  PI9433                  1.00   0.00  0.00  0.00  0.93  0.07  0.00  0.00  0.75  0.00
  PI9434                  1.00   0.00  0.00  0.00  0.80  0.19  0.00  0.00  0.77  0.00
  PI9435                  1.00   0.00  0.00  0.00  1.00  0.00  0.00  0.00  0.04  0.00
  PI9436                  1.00   0.00  0.00  0.00  1.00  0.00  0.00  0.00  0.76  0.00
  PI9437                  1.00   0.00  0.00  0.00  0.59  0.40  0.00  0.00  0.04  0.00
  PI9438                  1.00   0.00  0.00  0.00  0.04  0.11  0.00  0.85  0.00  0.00
  PI9439                  1.00   0.00  0.92  0.00  0.08  0.00  0.00  0.00  0.81  0.00
  PI9440                  1.00   0.12  0.00  0.00  0.88  0.00  0.00  0.00  0.81  0.00
  PI9461                  1.00   0.00  0.00  0.00  0.85  0.15  0.00  0.00  0.92  0.00
  PI9462                  1.00   0.00  0.00  0.00  0.80  0.20  0.00  0.00  0.84  0.00
  PI9484                  1.00   0.00  0.00  0.00  0.72  0.28  0.00  0.00  0.33  0.00
  PI9490                  1.00   0.12  0.81  0.00  0.07  0.00  0.00  0.00  0.83  0.00
  PI9527                  1.00   0.00  0.00  0.00  1.00  0.00  0.00  0.00  0.89  0.00
  PI9530                  1.00   0.01  0.00  0.00  0.98  0.01  0.00  0.00  0.94  0.00
  PI9533                  1.00   0.00  0.00  0.00  0.76  0.24  0.00  0.00  0.00  0.00
  PI9641                  1.00   0.00  0.00  0.00  1.00  0.00  0.00  0.00  0.03  0.00
  PI9642                  1.00   0.00  0.00  0.00  0.97  0.03  0.00  0.00  0.04  0.00
  PI9649                  1.00   0.04  0.87  0.00  0.09  0.00  0.00  0.00  0.81  0.00
  PI9658                  1.00   1.00  0.00  0.00  0.00  0.00  0.00  0.00  0.00  0.00
  PI9662                  1.00   0.00  0.00  0.00  0.94  0.05  0.00  0.00  0.04  0.00
  PI9667                  1.00   1.00  0.00  0.00  0.00  0.00  0.00  0.00  0.00  0.00
  PI9669                  1.00   1.00  0.00  0.00  0.00  0.00  0.00  0.00  0.00  0.00
  PI9675                  1.00   1.00  0.00  0.00  0.00  0.00  0.00  0.00  0.00  0.00
  PI9676                  1.00   1.00  0.00  0.00  0.00  0.00  0.00  0.00  0.00  0.00
  PI9677                  1.00   1.00  0.00  0.00  0.00  0.00  0.00  0.00  0.00  0.00
  PI9691                  1.00   1.00  0.00  0.00  0.00  0.00  0.00  0.00  0.00  0.00
  PI9697                  1.00   1.00  0.00  0.00  0.00  0.00  0.00  0.00  0.00  0.00
  PI9702                  1.00   1.00  0.00  0.00  0.00  0.00  0.00  0.00  0.00  0.00
  PI9768                  1.00   0.13  0.00  0.00  0.87  0.00  0.00  0.00  0.00  0.00
  PI9773                  1.00   0.13  0.80  0.00  0.07  0.00  0.00  0.00  0.83  0.00
  PI9783                  1.00   0.04  0.00  0.00  0.96  0.00  0.00  0.00  0.51  0.00
  PI9799                  1.00   0.00  0.00  0.00  0.02  0.98  0.00  0.00  0.05  0.00
  PI9802                  1.00   0.00  0.00  0.00  0.39  0.60  0.00  0.00  0.91  0.00
  PI9820                  1.00   0.00  0.00  0.00  0.91  0.08  0.00  0.00  0.79  0.00
  WNC01                   1.00   0.01  0.00  0.00  0.99  0.00  0.00  0.00  0.60  0.00
  WNC02                   1.00   0.02  0.00  0.00  0.98  0.00  0.00  0.00  0.00  0.00
  WNC03                   1.00   0.00  0.02  0.00  0.97  0.00  0.00  0.00  0.70  0.00
  WNC04                   1.00   0.00  0.00  0.00  1.00  0.00  0.00  0.00  0.06  0.00
  WNC05                   1.00   0.00  0.00  0.00  1.00  0.00  0.00  0.00  0.61  0.00
  WNC06                   1.00   0.02  0.00  0.00  0.98  0.00  0.00  0.00  0.62  0.00
  WNC07                   1.00   0.02  0.01  0.00  0.97  0.00  0.00  0.00  0.00  0.00
  TJHS_OF                 1.00   1.00  0.00  0.00  0.00  0.00  0.00  0.00  0.00  0.00
  
  
  *************************
  Conduit Surcharge Summary
  *************************
  
  ----------------------------------------------------------------------------
                                                           Hours        Hours 
                         --------- Hours Full --------   Above Full   Capacity
  Conduit                Both Ends  Upstream  Dnstream   Normal Flow   Limited
  ----------------------------------------------------------------------------
  54776                       0.01      0.01      0.01      0.12         0.01
  54848                       0.01      0.01      0.03      0.01         0.01
  54854                       0.03      0.03      0.23      0.01         0.01
  54858                       0.25      0.25      0.27      0.01         0.01
  54860                       0.23      0.23      0.29      0.01         0.01
  54869                       0.29      0.29      0.29      0.33         0.28
  55398                       0.26      0.29      0.27      0.34         0.26
  55407                       0.27      0.27      0.32      0.19         0.21
  55412                       0.31      0.32      0.37      0.20         0.22
  55413                       0.01      0.03      0.01      0.71         0.01
  55414                       0.03      0.37      0.03      0.72         0.02
  CUL_JB01.1                  0.01      0.26      0.01      0.01         0.01
  CUL_JB02.1                  0.01      0.21      0.01      0.01         0.01
  CUL_JB03.1                  0.76      1.56      0.76      0.01         0.76
  CUL_JBT01.1                 1.09      1.13      1.11      0.01         0.98
  CUL_JBT01.2                 1.09      1.13      1.11      0.01         0.98
  CUL_JBT02.1                 1.27      1.53      1.27      0.36         1.27
  CUL_JBT02.2                 1.27      1.53      1.27      0.36         1.27
  CUL_JBT02.3                 1.27      1.53      1.27      0.36         1.27
  CUL_JBT03                   0.01      0.70      0.01      1.05         0.01
  PI1001                      3.12      3.12      4.10      1.62         1.63
  PI1002                      2.08      2.08      3.12      1.39         1.39
  PI10033                     0.01      0.01     20.85      0.01         0.01
  PI10034                     0.01      0.01     20.74      0.01         0.01
  PI10080                     0.34      0.34      0.41      0.01         0.01
  PI10097                     0.24      0.24      0.34      0.01         0.01
  PI10114                     0.23      0.23      0.24      0.22         0.13
  PI10417                     0.47      0.47      0.89      0.01         0.01
  PI10598                     0.34      0.34      1.09      0.33         0.32
  PI10599                     0.01      0.01      0.01      1.26         0.01
  PI10600                     0.01      0.01      2.57      0.01         0.01
  PI10603                     0.01      0.01      0.01      0.70         0.01
  PI10605                     0.01      0.44      0.01      0.71         0.01
  PI10607                     0.59      0.65      0.59      0.71         0.59
  PI10612                     1.34      1.34      1.35      1.35         1.34
  PI10688                     0.64      0.64      0.68      0.01         0.01
  PI10689                     0.62      0.62      0.64      0.01         0.01
  PI10695                     0.41      0.41      0.62      0.01         0.01
  PI10729                     0.56      0.67      0.56      0.95         0.56
  PI10734                     0.67      0.73      0.67      1.02         0.67
  PI10747                     0.73      0.88      0.73      1.45         0.73
  PI10748                     0.88      0.89      0.88      0.94         0.88
  PI10749                     0.89      0.99      0.89      1.23         0.89
  PI6846                      0.01      0.01      0.11      0.01         0.01
  PI7344                      0.47      0.48      0.47      0.51         0.45
  PI7873                      0.39      0.43      0.39      0.65         0.38
  PI7877                      0.39      0.39      0.46      0.27         0.26
  PI7882                      0.46      0.46      0.47      0.01         0.01
  PI7891                      0.38      0.38      0.43      0.28         0.24
  PI7898                      0.38      0.39      0.38      0.48         0.37
  PI7905                      0.34      0.34      0.39      0.01         0.01
  PI7917                      0.29      0.29      0.34      0.01         0.01
  PI8165                      0.20      0.20      0.23      0.11         0.04
  PI8187                      0.17      0.17      0.20      0.23         0.12
  PI8201                      0.17      0.23      0.17      0.34         0.17
  PI8214                      0.23      0.26      0.23      0.32         0.23
  PI8529                      0.01      0.01     20.81      0.01         0.01
  PI8853                      0.01      0.01     20.79      0.01         0.01
  PI8895                      0.23      0.23      0.41      0.01         0.01
  PI8896                      0.23      0.28      0.23      0.30         0.20
  PI8900                      0.26      0.28      0.28      0.32         0.26
  PI8926                      0.31      0.31      0.31      0.29         0.28
  PI8927                      0.32      0.32      0.38      0.01         0.01
  PI8928                      0.28      0.31      0.28      0.35         0.28
  PI9433                      0.28      0.28      0.28      0.17         0.18
  PI9434                      0.26      0.28      0.26      0.34         0.26
  PI9435                      0.17      0.26      0.17      0.39         0.17
  PI9436                      0.01      0.17      0.01      0.37         0.01
  PI9439                      0.01      0.01      0.10      0.01         0.01
  PI9461                      0.01      0.01      0.13      0.01         0.01
  PI9530                      0.01      0.01      0.89      0.01         0.01
  PI9641                      0.33      0.33      2.42      0.01         0.01
  PI9642                      0.01      0.01      0.33      0.01         0.01
  PI9649                      0.59      0.59      1.64      0.01         0.01
  PI9768                      0.56      0.56      0.59      0.01         0.01
  PI9773                      0.50      0.50      0.64      0.01         0.01
  PI9783                      0.47      0.47      0.48      0.01         0.07
  PI9799                      0.26      0.41      0.26      0.48         0.26
  PI9802                      0.41      0.43      0.41      0.47         0.41
  PI9820                      0.41      0.41      0.43      0.01         0.01
  

  Analysis begun on:  Tue Jun 23 20:33:49 2026
  Analysis ended on:  Tue Jun 23 20:33:51 2026
  Total elapsed time: 00:00:02