
  EPA STORM WATER MANAGEMENT MODEL - VERSION 5.2 (Build 5.2.4)
  ------------------------------------------------------------

  WARNING 02: maximum depth increased for Node J1
  WARNING 02: maximum depth increased for Node J2
  WARNING 02: maximum depth increased for Node J3
  WARNING 02: maximum depth increased for Node J4
  WARNING 02: maximum depth increased for Node J5
  WARNING 02: maximum depth increased for Node J6
  WARNING 02: maximum depth increased for Node J7
  WARNING 02: maximum depth increased for Node J8
  WARNING 02: maximum depth increased for Node J9
  WARNING 02: maximum depth increased for Node J10
  WARNING 02: maximum depth increased for Node J11
  WARNING 02: maximum depth increased for Node J12
  WARNING 02: maximum depth increased for Node J13
  WARNING 02: maximum depth increased for Node J14
  WARNING 02: maximum depth increased for Node J15
  WARNING 02: maximum depth increased for Node J16
  WARNING 02: maximum depth increased for Node J17
  WARNING 02: maximum depth increased for Node J19
  WARNING 02: maximum depth increased for Node J20
  WARNING 02: maximum depth increased for Node J21
  WARNING 02: maximum depth increased for Node J22
  WARNING 02: maximum depth increased for Node J23
  WARNING 02: maximum depth increased for Node J24
  WARNING 02: maximum depth increased for Node J25
  WARNING 02: maximum depth increased for Node J26
  WARNING 02: maximum depth increased for Node J28
  WARNING 02: maximum depth increased for Node J29
  WARNING 02: maximum depth increased for Node J31
  WARNING 02: maximum depth increased for Node J32
  WARNING 02: maximum depth increased for Node J33
  WARNING 02: maximum depth increased for Node J34
  WARNING 02: maximum depth increased for Node J35
  WARNING 02: maximum depth increased for Node J27
  WARNING 02: maximum depth increased for Node J36
  
  *************
  Element Count
  *************
  Number of rain gages ...... 1
  Number of subcatchments ... 42
  Number of nodes ........... 37
  Number of links ........... 36
  Number of pollutants ...... 0
  Number of land uses ....... 0
  
  
  ****************
  Raingage Summary
  ****************
                                                      Data       Recording
  Name                 Data Source                    Type       Interval 
  ------------------------------------------------------------------------
  Gage1                TS1                            INTENSITY   60 min.
  
  
  ********************
  Subcatchment Summary
  ********************
  Name                       Area     Width   %Imperv    %Slope Rain Gage            Outlet              
  -----------------------------------------------------------------------------------------------------------
  S1                       328.68    472.40      5.00    2.0000 Gage1                J1                  
  S2                       716.78    712.47      4.00    3.4000 Gage1                J2                  
  S3                       341.49    251.85      5.00    3.4000 Gage1                J3                  
  S4                       470.61    316.26      5.00    3.8000 Gage1                J3                  
  S5                       568.10    293.50      5.00    3.0000 Gage1                J4                  
  S6                       317.61    249.32      5.00    2.6000 Gage1                J5                  
  S7                       140.42    135.16      5.00    3.1000 Gage1                J5                  
  S8                       181.23    173.76      6.00    5.1000 Gage1                J6                  
  S9                        83.21     49.87      5.00    2.0000 Gage1                J6                  
  S10                      150.53    161.06      7.00    5.1000 Gage1                J7                  
  S11                      224.57    121.83      5.00    2.0000 Gage1                J7                  
  S12                      493.98    396.39     12.65    2.0000 Gage1                J20                 
  S13                      214.98    215.20      5.00    5.5000 Gage1                J8                  
  S14                      375.69    294.81     10.10    2.0000 Gage1                J9                  
  S15                      166.76    126.98     13.33    3.0000 Gage1                J10                 
  S16                      167.19    114.04     28.23    1.1000 Gage1                J11                 
  S17                      268.82    228.78     64.00    0.5000 Gage1                J12                 
  S18                      347.84    307.12     69.00    3.5000 Gage1                J13                 
  S19                      705.38    180.59     31.45    0.5000 Gage1                J14                 
  S20                      511.25    252.84     28.95    0.4500 Gage1                J14                 
  S21                      389.02    145.38     84.82    0.3500 Gage1                J15                 
  S22                      726.33    663.99     33.02    1.1000 Gage1                J16                 
  S23                      261.65    143.73     33.24    0.8000 Gage1                J17                 
  S24                      209.32   1599.88     51.00    0.8000 Gage1                J18                 
  S25                     1030.53    301.57     86.39    0.5500 Gage1                J19                 
  S26                      223.30    205.74     21.00    4.9000 Gage1                J21                 
  S27                      544.04     36.21     33.06    0.9000 Gage1                J22                 
  S28                      364.62    188.70     42.34    0.9000 Gage1                J23                 
  S29                      399.53    293.83     93.69    0.5000 Gage1                J24                 
  S30                      940.74    698.19     44.38    1.2000 Gage1                J24                 
  S31                      746.59    179.40     94.07    0.7000 Gage1                J19                 
  S32                      418.60    124.26     76.22    0.3000 Gage1                J26                 
  S33                      525.70    409.17     51.09    0.9000 Gage1                J25                 
  S34                      721.93    148.78     97.10    0.3000 Gage1                J26                 
  S35                      185.50    223.70      9.50    0.5000 Gage1                J28                 
  S36                      605.99    471.29     32.36    1.1000 Gage1                J29                 
  S37                      408.48    338.68     26.35    0.9000 Gage1                J30                 
  S38                      449.17    447.24     49.36    0.9000 Gage1                J31                 
  S39                      541.05    409.47     78.12    0.7000 Gage1                J32                 
  S40                      523.80    234.56     25.00    0.5500 Gage1                J33                 
  S41                      323.80    268.86     60.22    0.5000 Gage1                J34                 
  S42                      896.65    404.30     68.39    0.3000 Gage1                J35                 
  
  
  ************
  Node Summary
  ************
                                           Invert      Max.    Ponded    External
  Name                 Type                 Elev.     Depth      Area    Inflow  
  -------------------------------------------------------------------------------
  J1                   JUNCTION            579.60    584.40     100.0
  J2                   JUNCTION            575.00    578.00     100.0
  J3                   JUNCTION            568.00    572.00     100.0
  J4                   JUNCTION            579.00    586.20     100.0
  J5                   JUNCTION            578.00    584.00     100.0
  J6                   JUNCTION            572.00    579.20     100.0
  J7                   JUNCTION            568.00    573.00     100.0
  J8                   JUNCTION            586.80    599.20     100.0
  J9                   JUNCTION            574.20    586.60     100.0
  J10                  JUNCTION            585.90    595.60     100.0
  J11                  JUNCTION            576.30    586.00     100.0
  J12                  JUNCTION            567.00    577.70     100.0
  J13                  JUNCTION            565.60    566.30     100.0
  J14                  JUNCTION            556.30    576.90     100.0
  J15                  JUNCTION            544.60    583.50     100.0
  J16                  JUNCTION            562.60    558.90     100.0
  J17                  JUNCTION            560.10    559.50     100.0
  J18                  JUNCTION            558.80    540.50     100.0
  J19                  JUNCTION            538.20    567.50     100.0
  J20                  JUNCTION            564.00    569.00     100.0
  J21                  JUNCTION            564.00    567.20     100.0
  J22                  JUNCTION            560.80    561.80     100.0
  J23                  JUNCTION            555.00    559.00     100.0
  J24                  JUNCTION            550.00    548.80     100.0
  J25                  JUNCTION            531.30    533.50     100.0
  J26                  JUNCTION            529.20    543.50     100.0
  J28                  JUNCTION            573.30    586.50     100.0
  J29                  JUNCTION            560.10    573.30     100.0
  J30                  JUNCTION            552.00    561.20     100.0
  J31                  JUNCTION            549.90    556.50     100.0
  J32                  JUNCTION            543.90    549.90     100.0
  J33                  JUNCTION            537.50    544.80     100.0
  J34                  JUNCTION            534.20    547.90     100.0
  J35                  JUNCTION            527.50    539.50     100.0
  J27                  JUNCTION            527.10    531.00     100.0
  J36                  JUNCTION            526.30    528.70     100.0
  OUT1                 OUTFALL             524.60    528.50       0.0
  
  
  ************
  Link Summary
  ************
  Name             From Node        To Node          Type            Length    %Slope Roughness
  ---------------------------------------------------------------------------------------------
  C1               J1               J2               CONDUIT         1269.3    1.1188    0.0300
  C2               J2               J3               CONDUIT         1803.6    0.7208    0.0300
  C3               J5               J6               CONDUIT         1218.7    0.9847    0.0300
  C4               J4               J6               CONDUIT         1668.7    0.8390    0.0300
  C5               J6               J7               CONDUIT          891.1    0.7856    0.0300
  C6               J7               J20              CONDUIT         1537.2    0.5205    0.0300
  C7               J8               J9               CONDUIT         2102.8    1.1985    0.0300
  C8               J10              J11              CONDUIT         1466.1    1.3097    0.0300
  C9               J9               J12              CONDUIT         1563.3    0.9787    0.0300
  C10              J11              J12              CONDUIT         1320.5    1.3859    0.0300
  C11              J12              J14              CONDUIT         3906.1    0.6068    0.0300
  C12              J13              J14              CONDUIT         2945.4    0.6315    0.0300
  C13              J14              J15              CONDUIT         2675.9    0.4597    0.0300
  C14              J3               J16              CONDUIT         1623.5    1.0718    0.0300
  C15              J16              J17              CONDUIT         1500.0    0.2067    0.0300
  C16              J17              J18              CONDUIT         1366.5    1.4857    0.0300
  C18              J15              J19              CONDUIT         4845.3    0.4623    0.0300
  C19              J21              J22              CONDUIT         2002.2    0.5594    0.0300
  C20              J20              J23              CONDUIT         2932.2    0.5116    0.0300
  C21              J22              J23              CONDUIT          932.5    1.1583    0.0300
  C22              J23              J24              CONDUIT         1721.1    1.0459    0.0300
  C23              J24              J19              CONDUIT         4161.6    0.4518    0.0300
  C24              J19              J26              CONDUIT         3368.7    0.6679    0.0300
  C25              J25              J26              CONDUIT         4852.4    0.0866    0.0300
  C26              J26              J27              CONDUIT          690.6    0.3186    0.0300
  C27              J27              J36              CONDUIT          608.0    0.3289    0.0300
  C28              J36              OUT1             CONDUIT          161.0    1.1802    0.0300
  C29              J28              J29              CONDUIT         2035.8    1.2969    0.0300
  C30              J29              J30              CONDUIT         1333.8    1.2146    0.0300
  C31              J30              J31              CONDUIT         1907.4    0.2202    0.0300
  C32              J31              J32              CONDUIT         1602.5    0.7863    0.0300
  C33              J32              J33              CONDUIT          769.3    1.0269    0.0300
  C34              J33              J34              CONDUIT          348.5    1.1190    0.0300
  C35              J34              J35              CONDUIT         3922.3    0.3850    0.0300
  C36              J35              J36              CONDUIT          800.5    0.3623    0.0300
  C17              J18              J15              CONDUIT         3565.0    0.3983    0.0300
  
  
  *********************
  Cross Section Summary
  *********************
                                        Full     Full     Hyd.     Max.   No. of     Full
  Conduit          Shape               Depth     Area     Rad.    Width  Barrels     Flow
  ---------------------------------------------------------------------------------------
  C1               C1                   4.80   318.75     3.15   100.00        1  2417.70
  C2               C2                   7.00   467.50     4.60   100.00        1  3657.73
  C3               C3                   6.00   356.25     3.52   100.00        1  2727.54
  C4               C4                   7.20   377.50     3.70   100.00        1  2758.06
  C5               C5                   4.00   255.00     2.53   100.00        1  1399.23
  C6               C6                   5.00   318.75     3.15   100.00        1  1648.31
  C7               C7                  12.40   718.75     6.93   100.00        1  9538.13
  C8               C8                   9.70   606.25     5.89   100.00        1  7543.10
  C9               C9                   7.20   450.00     4.43   100.00        1  4004.29
  C10              C10                  9.30   602.50     5.88   100.00        1  7703.40
  C11              C11                 10.70   616.25     5.96   100.00        1  5260.26
  C12              C12                 10.70   528.75     5.14   100.00        1  4172.55
  C13              C13                 11.70   656.25     6.36   100.00        1  5093.33
  C14              C14                  6.00   382.50     3.76   100.00        1  3190.52
  C15              C15                  2.50   150.00     1.49   100.00        1   296.90
  C16              C16                  2.50   141.25     1.40   100.00        1   719.55
  C18              C18                  7.50   381.25     3.74   100.00        1  2081.78
  C19              C19                  3.20   191.25     1.90   100.00        1   731.70
  C20              C20                  9.00   482.50     4.72   100.00        1  3238.20
  C21              C21                  6.80   430.00     4.23   100.00        1  4034.34
  C22              C22                  6.30   407.50     4.01   100.00        1  3507.15
  C23              C23                 11.80   570.00     5.53   100.00        1  3992.62
  C24              C24                 10.10   661.25     6.41   100.00        1  6217.81
  C25              C25                  2.20   116.25     1.16   100.00        1   125.56
  C26              C26                  2.10   113.75     1.13   100.00        1   232.47
  C27              C27                  0.90    48.75     0.48   100.00        1    57.54
  C28              C28                  1.70   110.00     1.09   100.00        1   423.24
  C29              C29                 13.20   820.00     7.85   100.00        1 12295.86
  C30              C30                  9.20   618.75     5.97   100.00        1  7484.29
  C31              C31                  2.40   161.25     1.60   100.00        1   345.60
  C32              C32                  6.00   373.75     3.69   100.00        1  2638.49
  C33              C33                  6.40   385.00     3.81   100.00        1  3170.86
  C34              C34                  3.30   197.50     1.96   100.00        1  1092.00
  C35              C35                  6.70   408.75     4.03   100.00        1  2140.57
  C36              C36                  1.60   103.75     1.03   100.00        1   212.54
  C17              C17                 14.20   848.75     8.06   100.00        1  7181.21
  
  
  ****************
  Transect Summary
  ****************

  Transect C1
  Area:  
              0.0013     0.0051     0.0115     0.0198     0.0287 
              0.0384     0.0488     0.0599     0.0717     0.0842 
              0.0974     0.1113     0.1260     0.1413     0.1573 
              0.1741     0.1915     0.2094     0.2278     0.2465 
              0.2657     0.2853     0.3053     0.3257     0.3466 
              0.3678     0.3895     0.4116     0.4341     0.4571 
              0.4804     0.5042     0.5284     0.5530     0.5780 
              0.6035     0.6293     0.6556     0.6823     0.7094 
              0.7370     0.7649     0.7933     0.8221     0.8513 
              0.8807     0.9103     0.9401     0.9700     1.0000 
  Hrad:  
              0.0151     0.0303     0.0454     0.0694     0.0933 
              0.1159     0.1375     0.1583     0.1784     0.1980 
              0.2171     0.2358     0.2541     0.2722     0.2900 
              0.3076     0.3267     0.3490     0.3709     0.3925 
              0.4139     0.4350     0.4558     0.4763     0.4967 
              0.5169     0.5368     0.5566     0.5762     0.5956 
              0.6148     0.6340     0.6529     0.6718     0.6905 
              0.7091     0.7275     0.7459     0.7641     0.7823 
              0.8004     0.8183     0.8362     0.8540     0.8734 
              0.8989     0.9244     0.9497     0.9749     1.0000 
  Width: 
              0.0850     0.1700     0.2550     0.2862     0.3096 
              0.3331     0.3565     0.3800     0.4035     0.4269 
              0.4504     0.4738     0.4973     0.5208     0.5442 
              0.5677     0.5880     0.6019     0.6157     0.6296 
              0.6435     0.6574     0.6713     0.6852     0.6991 
              0.7130     0.7269     0.7407     0.7546     0.7685 
              0.7824     0.7963     0.8102     0.8241     0.8380 
              0.8519     0.8657     0.8796     0.8935     0.9074 
              0.9213     0.9352     0.9491     0.9630     0.9750 
              0.9800     0.9850     0.9900     0.9950     1.0000 

  Transect C2
  Area:  
              0.0013     0.0052     0.0118     0.0208     0.0308 
              0.0415     0.0529     0.0650     0.0778     0.0913 
              0.1054     0.1203     0.1359     0.1521     0.1690 
              0.1863     0.2040     0.2220     0.2404     0.2592 
              0.2784     0.2980     0.3179     0.3383     0.3590 
              0.3801     0.4015     0.4234     0.4456     0.4682 
              0.4912     0.5146     0.5384     0.5625     0.5871 
              0.6120     0.6372     0.6629     0.6890     0.7154 
              0.7422     0.7694     0.7970     0.8249     0.8533 
              0.8820     0.9111     0.9405     0.9702     1.0000 
  Hrad:  
              0.0152     0.0303     0.0455     0.0652     0.0901 
              0.1137     0.1363     0.1580     0.1790     0.1994 
              0.2193     0.2388     0.2578     0.2765     0.2986 
              0.3218     0.3447     0.3672     0.3893     0.4112 
              0.4328     0.4541     0.4752     0.4961     0.5167 
              0.5371     0.5573     0.5773     0.5971     0.6168 
              0.6363     0.6557     0.6749     0.6939     0.7129 
              0.7317     0.7503     0.7689     0.7874     0.8057 
              0.8240     0.8421     0.8602     0.8782     0.8960 
              0.9138     0.9316     0.9540     0.9770     1.0000 
  Width: 
              0.0875     0.1750     0.2625     0.3225     0.3457 
              0.3689     0.3922     0.4154     0.4386     0.4619 
              0.4851     0.5084     0.5316     0.5548     0.5706 
              0.5833     0.5960     0.6088     0.6215     0.6343 
              0.6470     0.6597     0.6725     0.6852     0.6980 
              0.7107     0.7234     0.7362     0.7489     0.7616 
              0.7744     0.7871     0.7999     0.8126     0.8253 
              0.8381     0.8508     0.8635     0.8763     0.8890 
              0.9018     0.9145     0.9272     0.9400     0.9527 
              0.9654     0.9782     0.9860     0.9930     1.0000 

  Transect C3
  Area:  
              0.0007     0.0027     0.0061     0.0108     0.0168 
              0.0243     0.0330     0.0431     0.0544     0.0663 
              0.0787     0.0917     0.1053     0.1194     0.1341 
              0.1494     0.1652     0.1816     0.1985     0.2160 
              0.2340     0.2527     0.2718     0.2916     0.3119 
              0.3328     0.3542     0.3762     0.3987     0.4218 
              0.4455     0.4697     0.4945     0.5199     0.5458 
              0.5723     0.5993     0.6269     0.6551     0.6838 
              0.7131     0.7430     0.7734     0.8043     0.8359 
              0.8680     0.9005     0.9333     0.9665     1.0000 
  Hrad:  
              0.0169     0.0339     0.0508     0.0677     0.0847 
              0.1016     0.1185     0.1355     0.1587     0.1844 
              0.2093     0.2335     0.2571     0.2802     0.3028 
              0.3249     0.3467     0.3682     0.3893     0.4102 
              0.4308     0.4512     0.4714     0.4914     0.5112 
              0.5308     0.5504     0.5697     0.5890     0.6081 
              0.6271     0.6460     0.6648     0.6836     0.7022 
              0.7208     0.7393     0.7577     0.7761     0.7944 
              0.8126     0.8308     0.8489     0.8670     0.8850 
              0.9041     0.9283     0.9523     0.9762     1.0000 
  Width: 
              0.0400     0.0800     0.1200     0.1600     0.2000 
              0.2400     0.2800     0.3200     0.3444     0.3611 
              0.3778     0.3944     0.4111     0.4278     0.4444 
              0.4611     0.4778     0.4944     0.5111     0.5278 
              0.5444     0.5611     0.5778     0.5944     0.6111 
              0.6278     0.6444     0.6611     0.6778     0.6944 
              0.7111     0.7278     0.7444     0.7611     0.7778 
              0.7944     0.8111     0.8278     0.8444     0.8611 
              0.8778     0.8944     0.9111     0.9278     0.9444 
              0.9600     0.9700     0.9800     0.9900     1.0000 

  Transect C4
  Area:  
              0.0007     0.0030     0.0067     0.0120     0.0187 
              0.0270     0.0367     0.0479     0.0597     0.0721 
              0.0849     0.0981     0.1119     0.1261     0.1408 
              0.1560     0.1716     0.1878     0.2044     0.2214 
              0.2390     0.2570     0.2755     0.2945     0.3139 
              0.3339     0.3543     0.3751     0.3965     0.4183 
              0.4406     0.4634     0.4866     0.5103     0.5345 
              0.5592     0.5844     0.6100     0.6363     0.6637 
              0.6923     0.7220     0.7529     0.7849     0.8181 
              0.8523     0.8878     0.9243     0.9620     1.0000 
  Hrad:  
              0.0193     0.0386     0.0579     0.0771     0.0964 
              0.1157     0.1350     0.1589     0.1903     0.2208 
              0.2503     0.2792     0.3073     0.3348     0.3617 
              0.3882     0.4142     0.4397     0.4649     0.4898 
              0.5143     0.5385     0.5624     0.5861     0.6096 
              0.6328     0.6558     0.6787     0.7014     0.7239 
              0.7462     0.7684     0.7905     0.8124     0.8342 
              0.8559     0.8775     0.8990     0.9028     0.9037 
              0.9061     0.9097     0.9144     0.9201     0.9268 
              0.9342     0.9425     0.9513     0.9691     1.0000 
  Width: 
              0.0393     0.0785     0.1178     0.1571     0.1964 
              0.2356     0.2749     0.3045     0.3169     0.3294 
              0.3418     0.3543     0.3667     0.3792     0.3916 
              0.4041     0.4165     0.4290     0.4414     0.4539 
              0.4663     0.4788     0.4912     0.5036     0.5161 
              0.5285     0.5410     0.5534     0.5659     0.5783 
              0.5908     0.6032     0.6157     0.6281     0.6406 
              0.6530     0.6655     0.6779     0.7044     0.7343 
              0.7642     0.7941     0.8240     0.8539     0.8838 
              0.9137     0.9436     0.9735     0.9941     1.0000 

  Transect C5
  Area:  
              0.0008     0.0033     0.0075     0.0134     0.0209 
              0.0301     0.0407     0.0519     0.0638     0.0763 
              0.0894     0.1031     0.1174     0.1324     0.1479 
              0.1641     0.1810     0.1984     0.2165     0.2350 
              0.2540     0.2735     0.2934     0.3138     0.3346 
              0.3559     0.3776     0.3998     0.4224     0.4455 
              0.4691     0.4931     0.5175     0.5424     0.5678 
              0.5936     0.6198     0.6466     0.6737     0.7014 
              0.7294     0.7580     0.7869     0.8164     0.8463 
              0.8765     0.9070     0.9378     0.9688     1.0000 
  Hrad:  
              0.0157     0.0315     0.0472     0.0629     0.0787 
              0.0944     0.1172     0.1415     0.1649     0.1876 
              0.2096     0.2311     0.2520     0.2726     0.2927 
              0.3125     0.3320     0.3513     0.3711     0.3932 
              0.4149     0.4364     0.4576     0.4785     0.4993 
              0.5198     0.5401     0.5602     0.5801     0.5999 
              0.6195     0.6390     0.6583     0.6775     0.6966 
              0.7155     0.7344     0.7531     0.7717     0.7903 
              0.8087     0.8270     0.8453     0.8635     0.8816 
              0.9055     0.9293     0.9530     0.9766     1.0000 
  Width: 
              0.0533     0.1067     0.1600     0.2133     0.2667 
              0.3200     0.3482     0.3680     0.3877     0.4075 
              0.4273     0.4471     0.4669     0.4867     0.5065 
              0.5262     0.5460     0.5658     0.5843     0.5987 
              0.6132     0.6276     0.6421     0.6565     0.6710 
              0.6854     0.6999     0.7143     0.7288     0.7432 
              0.7577     0.7721     0.7866     0.8010     0.8155 
              0.8299     0.8444     0.8588     0.8733     0.8877 
              0.9022     0.9166     0.9311     0.9455     0.9600 
              0.9680     0.9760     0.9840     0.9920     1.0000 

  Transect C6
  Area:  
              0.0005     0.0019     0.0042     0.0075     0.0118 
              0.0169     0.0231     0.0301     0.0381     0.0471 
              0.0573     0.0693     0.0831     0.0985     0.1157 
              0.1339     0.1526     0.1717     0.1912     0.2111 
              0.2315     0.2522     0.2734     0.2950     0.3170 
              0.3394     0.3623     0.3855     0.4092     0.4333 
              0.4579     0.4828     0.5082     0.5339     0.5601 
              0.5867     0.6138     0.6412     0.6691     0.6974 
              0.7261     0.7552     0.7848     0.8147     0.8451 
              0.8758     0.9066     0.9376     0.9687     1.0000 
  Hrad:  
              0.0157     0.0315     0.0472     0.0629     0.0787 
              0.0944     0.1101     0.1259     0.1416     0.1573 
              0.1620     0.1697     0.1793     0.1902     0.2020 
              0.2285     0.2545     0.2801     0.3053     0.3300 
              0.3544     0.3784     0.4021     0.4255     0.4485 
              0.4714     0.4939     0.5162     0.5382     0.5601 
              0.5817     0.6031     0.6243     0.6454     0.6663 
              0.6870     0.7075     0.7279     0.7482     0.7683 
              0.7883     0.8082     0.8279     0.8475     0.8671 
              0.8939     0.9206     0.9472     0.9736     1.0000 
  Width: 
              0.0300     0.0600     0.0900     0.1200     0.1500 
              0.1800     0.2100     0.2400     0.2700     0.3000 
              0.3550     0.4100     0.4650     0.5200     0.5750 
              0.5883     0.6017     0.6150     0.6283     0.6417 
              0.6550     0.6683     0.6817     0.6950     0.7083 
              0.7217     0.7350     0.7483     0.7617     0.7750 
              0.7883     0.8017     0.8150     0.8283     0.8417 
              0.8550     0.8683     0.8817     0.8950     0.9083 
              0.9217     0.9350     0.9483     0.9617     0.9750 
              0.9800     0.9850     0.9900     0.9950     1.0000 

  Transect C7
  Area:  
              0.0006     0.0023     0.0053     0.0093     0.0146 
              0.0210     0.0286     0.0374     0.0473     0.0584 
              0.0706     0.0834     0.0968     0.1108     0.1254 
              0.1405     0.1563     0.1726     0.1895     0.2070 
              0.2250     0.2436     0.2629     0.2827     0.3030 
              0.3240     0.3455     0.3676     0.3903     0.4136 
              0.4375     0.4619     0.4869     0.5125     0.5387 
              0.5654     0.5928     0.6207     0.6492     0.6783 
              0.7079     0.7382     0.7690     0.8004     0.8323 
              0.8649     0.8980     0.9317     0.9657     1.0000 
  Hrad:  
              0.0176     0.0352     0.0528     0.0704     0.0879 
              0.1055     0.1231     0.1407     0.1583     0.1759 
              0.1978     0.2231     0.2477     0.2717     0.2952 
              0.3181     0.3406     0.3627     0.3845     0.4059 
              0.4271     0.4480     0.4687     0.4892     0.5095 
              0.5295     0.5495     0.5693     0.5889     0.6084 
              0.6278     0.6471     0.6663     0.6853     0.7043 
              0.7232     0.7421     0.7608     0.7795     0.7981 
              0.8167     0.8352     0.8536     0.8720     0.8904 
              0.9087     0.9269     0.9507     0.9754     1.0000 
  Width: 
              0.0338     0.0677     0.1015     0.1354     0.1692 
              0.2031     0.2369     0.2708     0.3046     0.3385 
              0.3635     0.3803     0.3971     0.4140     0.4308 
              0.4476     0.4644     0.4812     0.4980     0.5148 
              0.5316     0.5485     0.5653     0.5821     0.5989 
              0.6157     0.6325     0.6493     0.6662     0.6830 
              0.6998     0.7166     0.7334     0.7502     0.7670 
              0.7838     0.8007     0.8175     0.8343     0.8511 
              0.8679     0.8847     0.9015     0.9184     0.9352 
              0.9520     0.9688     0.9800     0.9900     1.0000 

  Transect C8
  Area:  
              0.0010     0.0039     0.0088     0.0156     0.0244 
              0.0346     0.0454     0.0568     0.0688     0.0814 
              0.0945     0.1082     0.1225     0.1374     0.1528 
              0.1688     0.1854     0.2026     0.2203     0.2386 
              0.2575     0.2768     0.2965     0.3167     0.3374 
              0.3585     0.3800     0.4020     0.4245     0.4474 
              0.4707     0.4945     0.5188     0.5435     0.5686 
              0.5942     0.6203     0.6468     0.6738     0.7012 
              0.7290     0.7573     0.7861     0.8153     0.8450 
              0.8751     0.9056     0.9367     0.9681     1.0000 
  Hrad:  
              0.0164     0.0327     0.0491     0.0654     0.0818 
              0.1073     0.1334     0.1585     0.1827     0.2062 
              0.2290     0.2512     0.2730     0.2943     0.3152 
              0.3357     0.3559     0.3759     0.3956     0.4150 
              0.4367     0.4583     0.4797     0.5008     0.5217 
              0.5423     0.5628     0.5830     0.6031     0.6230 
              0.6428     0.6624     0.6818     0.7011     0.7203 
              0.7394     0.7584     0.7772     0.7960     0.8146 
              0.8332     0.8516     0.8700     0.8883     0.9065 
              0.9247     0.9428     0.9608     0.9787     1.0000 
  Width: 
              0.0609     0.1219     0.1828     0.2437     0.3047 
              0.3293     0.3473     0.3653     0.3834     0.4014 
              0.4194     0.4374     0.4554     0.4734     0.4914 
              0.5094     0.5274     0.5455     0.5635     0.5815 
              0.5960     0.6100     0.6241     0.6382     0.6523 
              0.6664     0.6805     0.6945     0.7086     0.7227 
              0.7368     0.7509     0.7650     0.7791     0.7931 
              0.8072     0.8213     0.8354     0.8495     0.8636 
              0.8776     0.8917     0.9058     0.9199     0.9340 
              0.9481     0.9621     0.9762     0.9903     1.0000 

  Transect C9
  Area:  
              0.0006     0.0026     0.0058     0.0103     0.0160 
              0.0231     0.0314     0.0411     0.0520     0.0642 
              0.0772     0.0909     0.1052     0.1203     0.1360 
              0.1525     0.1696     0.1873     0.2055     0.2242 
              0.2434     0.2630     0.2831     0.3036     0.3247 
              0.3462     0.3681     0.3905     0.4134     0.4368 
              0.4606     0.4849     0.5097     0.5349     0.5606 
              0.5867     0.6134     0.6404     0.6680     0.6960 
              0.7245     0.7535     0.7829     0.8128     0.8431 
              0.8740     0.9051     0.9365     0.9681     1.0000 
  Hrad:  
              0.0161     0.0323     0.0484     0.0645     0.0807 
              0.0968     0.1130     0.1291     0.1452     0.1634 
              0.1864     0.2088     0.2305     0.2518     0.2726 
              0.2930     0.3130     0.3352     0.3584     0.3812 
              0.4037     0.4259     0.4477     0.4693     0.4907 
              0.5118     0.5327     0.5534     0.5738     0.5941 
              0.6143     0.6342     0.6540     0.6737     0.6932 
              0.7126     0.7319     0.7510     0.7701     0.7890 
              0.8078     0.8266     0.8452     0.8638     0.8823 
              0.9018     0.9265     0.9511     0.9756     1.0000 
  Width: 
              0.0401     0.0802     0.1203     0.1605     0.2006 
              0.2407     0.2808     0.3209     0.3610     0.3959 
              0.4172     0.4386     0.4599     0.4812     0.5025 
              0.5239     0.5452     0.5622     0.5768     0.5914 
              0.6059     0.6205     0.6351     0.6497     0.6643 
              0.6789     0.6934     0.7080     0.7226     0.7372 
              0.7518     0.7664     0.7809     0.7955     0.8101 
              0.8247     0.8393     0.8539     0.8684     0.8830 
              0.8976     0.9122     0.9268     0.9414     0.9559 
              0.9694     0.9770     0.9847     0.9923     1.0000 

  Transect C10
  Area:  
              0.0009     0.0038     0.0085     0.0151     0.0236 
              0.0337     0.0445     0.0560     0.0681     0.0809 
              0.0943     0.1084     0.1231     0.1384     0.1544 
              0.1710     0.1882     0.2060     0.2243     0.2430 
              0.2621     0.2816     0.3016     0.3219     0.3428 
              0.3640     0.3857     0.4078     0.4303     0.4532 
              0.4766     0.5004     0.5246     0.5493     0.5744 
              0.5999     0.6258     0.6522     0.6789     0.7062 
              0.7338     0.7619     0.7904     0.8193     0.8486 
              0.8784     0.9084     0.9387     0.9692     1.0000 
  Hrad:  
              0.0157     0.0314     0.0471     0.0629     0.0786 
              0.1004     0.1251     0.1487     0.1715     0.1935 
              0.2150     0.2359     0.2563     0.2763     0.2960 
              0.3153     0.3344     0.3563     0.3786     0.4007 
              0.4224     0.4439     0.4650     0.4860     0.5067 
              0.5271     0.5474     0.5674     0.5873     0.6070 
              0.6265     0.6459     0.6651     0.6842     0.7032 
              0.7220     0.7407     0.7593     0.7778     0.7961 
              0.8144     0.8326     0.8507     0.8687     0.8866 
              0.9063     0.9299     0.9534     0.9768     1.0000 
  Width: 
              0.0610     0.1221     0.1831     0.2441     0.3052 
              0.3411     0.3618     0.3825     0.4032     0.4240 
              0.4447     0.4654     0.4862     0.5069     0.5276 
              0.5484     0.5691     0.5843     0.5982     0.6120 
              0.6258     0.6396     0.6534     0.6673     0.6811 
              0.6949     0.7087     0.7226     0.7364     0.7502 
              0.7640     0.7779     0.7917     0.8055     0.8193 
              0.8331     0.8470     0.8608     0.8746     0.8884 
              0.9023     0.9161     0.9299     0.9437     0.9576 
              0.9695     0.9771     0.9848     0.9924     1.0000 

  Transect C11
  Area:  
              0.0006     0.0024     0.0054     0.0096     0.0151 
              0.0217     0.0295     0.0386     0.0487     0.0596 
              0.0710     0.0832     0.0959     0.1093     0.1233 
              0.1380     0.1533     0.1692     0.1858     0.2030 
              0.2209     0.2394     0.2585     0.2783     0.2987 
              0.3197     0.3414     0.3637     0.3866     0.4101 
              0.4341     0.4587     0.4839     0.5096     0.5360 
              0.5629     0.5904     0.6185     0.6471     0.6763 
              0.7062     0.7365     0.7675     0.7990     0.8312 
              0.8638     0.8971     0.9310     0.9654     1.0000 
  Hrad:  
              0.0176     0.0352     0.0529     0.0705     0.0881 
              0.1057     0.1234     0.1410     0.1632     0.1879 
              0.2118     0.2350     0.2576     0.2797     0.3014 
              0.3227     0.3437     0.3643     0.3848     0.4050 
              0.4249     0.4448     0.4644     0.4839     0.5033 
              0.5225     0.5416     0.5619     0.5821     0.6023 
              0.6222     0.6421     0.6618     0.6814     0.7009 
              0.7204     0.7397     0.7589     0.7781     0.7971 
              0.8161     0.8351     0.8540     0.8728     0.8915 
              0.9102     0.9289     0.9475     0.9705     1.0000 
  Width: 
              0.0347     0.0694     0.1042     0.1389     0.1736 
              0.2083     0.2431     0.2778     0.3029     0.3212 
              0.3396     0.3580     0.3764     0.3947     0.4131 
              0.4315     0.4499     0.4682     0.4866     0.5050 
              0.5234     0.5417     0.5601     0.5785     0.5969 
              0.6152     0.6336     0.6504     0.6671     0.6837 
              0.7003     0.7170     0.7336     0.7502     0.7668 
              0.7835     0.8001     0.8167     0.8334     0.8500 
              0.8666     0.8833     0.8999     0.9165     0.9332 
              0.9498     0.9664     0.9830     0.9950     1.0000 

  Transect C12
  Area:  
              0.0004     0.0018     0.0040     0.0070     0.0110 
              0.0158     0.0215     0.0281     0.0356     0.0439 
              0.0531     0.0632     0.0742     0.0860     0.0988 
              0.1124     0.1268     0.1421     0.1581     0.1746 
              0.1918     0.2095     0.2279     0.2469     0.2665 
              0.2868     0.3076     0.3291     0.3512     0.3739 
              0.3972     0.4211     0.4456     0.4708     0.4966 
              0.5233     0.5510     0.5797     0.6094     0.6400 
              0.6716     0.7042     0.7378     0.7724     0.8079 
              0.8444     0.8819     0.9204     0.9599     1.0000 
  Hrad:  
              0.0203     0.0406     0.0609     0.0812     0.1015 
              0.1218     0.1421     0.1623     0.1826     0.2029 
              0.2232     0.2435     0.2638     0.2841     0.3044 
              0.3247     0.3450     0.3693     0.3948     0.4200 
              0.4447     0.4691     0.4933     0.5171     0.5407 
              0.5641     0.5873     0.6103     0.6331     0.6558 
              0.6783     0.7007     0.7230     0.7452     0.7630 
              0.7755     0.7884     0.8019     0.8158     0.8301 
              0.8448     0.8598     0.8752     0.8908     0.9066 
              0.9227     0.9390     0.9555     0.9754     1.0000 
  Width: 
              0.0217     0.0434     0.0651     0.0868     0.1084 
              0.1301     0.1518     0.1735     0.1952     0.2169 
              0.2386     0.2603     0.2820     0.3036     0.3253 
              0.3470     0.3687     0.3858     0.4010     0.4162 
              0.4315     0.4467     0.4619     0.4771     0.4923 
              0.5075     0.5227     0.5380     0.5532     0.5684 
              0.5836     0.5988     0.6140     0.6292     0.6482 
              0.6724     0.6966     0.7208     0.7450     0.7692 
              0.7934     0.8176     0.8418     0.8660     0.8902 
              0.9144     0.9386     0.9628     0.9838     1.0000 

  Transect C13
  Area:  
              0.0005     0.0021     0.0046     0.0082     0.0128 
              0.0185     0.0251     0.0328     0.0416     0.0513 
              0.0621     0.0739     0.0867     0.1003     0.1145 
              0.1292     0.1446     0.1605     0.1771     0.1943 
              0.2120     0.2304     0.2493     0.2689     0.2890 
              0.3098     0.3311     0.3531     0.3757     0.3990 
              0.4229     0.4475     0.4728     0.4987     0.5252 
              0.5524     0.5803     0.6088     0.6380     0.6678 
              0.6983     0.7294     0.7612     0.7936     0.8267 
              0.8605     0.8948     0.9295     0.9645     1.0000 
  Hrad:  
              0.0180     0.0361     0.0541     0.0722     0.0902 
              0.1083     0.1263     0.1444     0.1624     0.1804 
              0.1985     0.2165     0.2359     0.2607     0.2850 
              0.3087     0.3319     0.3548     0.3772     0.3993 
              0.4211     0.4427     0.4640     0.4850     0.5059 
              0.5266     0.5470     0.5660     0.5850     0.6039 
              0.6228     0.6416     0.6603     0.6790     0.6977 
              0.7163     0.7348     0.7533     0.7718     0.7903 
              0.8087     0.8271     0.8454     0.8638     0.8821 
              0.9004     0.9247     0.9500     0.9751     1.0000 
  Width: 
              0.0288     0.0576     0.0864     0.1151     0.1439 
              0.1727     0.2015     0.2303     0.2591     0.2879 
              0.3166     0.3454     0.3721     0.3888     0.4056 
              0.4224     0.4392     0.4560     0.4728     0.4896 
              0.5063     0.5231     0.5399     0.5567     0.5735 
              0.5903     0.6072     0.6255     0.6438     0.6622 
              0.6805     0.6988     0.7172     0.7355     0.7538 
              0.7722     0.7905     0.8088     0.8272     0.8455 
              0.8638     0.8822     0.9005     0.9188     0.9372 
              0.9555     0.9675     0.9783     0.9892     1.0000 

  Transect C14
  Area:  
              0.0024     0.0095     0.0180     0.0271     0.0367 
              0.0469     0.0576     0.0688     0.0805     0.0928 
              0.1056     0.1190     0.1329     0.1473     0.1622 
              0.1777     0.1937     0.2103     0.2274     0.2450 
              0.2631     0.2818     0.3010     0.3207     0.3409 
              0.3615     0.3827     0.4043     0.4264     0.4490 
              0.4721     0.4956     0.5196     0.5442     0.5691 
              0.5946     0.6206     0.6470     0.6739     0.7013 
              0.7292     0.7576     0.7864     0.8157     0.8455 
              0.8758     0.9066     0.9376     0.9687     1.0000 
  Hrad:  
              0.0159     0.0364     0.0650     0.0921     0.1179 
              0.1427     0.1666     0.1898     0.2123     0.2342 
              0.2555     0.2765     0.2970     0.3172     0.3371 
              0.3567     0.3761     0.3952     0.4141     0.4328 
              0.4513     0.4697     0.4886     0.5079     0.5271 
              0.5461     0.5649     0.5836     0.6022     0.6206 
              0.6390     0.6572     0.6753     0.6933     0.7113 
              0.7291     0.7469     0.7646     0.7822     0.7998 
              0.8173     0.8347     0.8521     0.8694     0.8867 
              0.9039     0.9239     0.9494     0.9748     1.0000 
  Width: 
              0.1550     0.2640     0.2810     0.2980     0.3150 
              0.3320     0.3490     0.3660     0.3830     0.4000 
              0.4170     0.4340     0.4510     0.4680     0.4850 
              0.5020     0.5190     0.5360     0.5530     0.5700 
              0.5870     0.6040     0.6202     0.6355     0.6509 
              0.6662     0.6816     0.6969     0.7122     0.7276 
              0.7429     0.7583     0.7736     0.7890     0.8043 
              0.8197     0.8350     0.8503     0.8657     0.8810 
              0.8964     0.9117     0.9271     0.9424     0.9578 
              0.9731     0.9850     0.9900     0.9950     1.0000 

  Transect C15
  Area:  
              0.0005     0.0019     0.0042     0.0074     0.0116 
              0.0167     0.0227     0.0296     0.0375     0.0463 
              0.0560     0.0667     0.0782     0.0907     0.1042 
              0.1185     0.1338     0.1500     0.1670     0.1847 
              0.2030     0.2221     0.2418     0.2622     0.2833 
              0.3050     0.3274     0.3505     0.3743     0.3988 
              0.4239     0.4497     0.4762     0.5033     0.5312 
              0.5597     0.5889     0.6188     0.6491     0.6797 
              0.7105     0.7417     0.7730     0.8047     0.8366 
              0.8688     0.9012     0.9339     0.9668     1.0000 
  Hrad:  
              0.0167     0.0333     0.0500     0.0667     0.0834 
              0.1000     0.1167     0.1334     0.1501     0.1667 
              0.1834     0.2001     0.2168     0.2334     0.2501 
              0.2668     0.2834     0.3001     0.3211     0.3417 
              0.3621     0.3822     0.4021     0.4217     0.4412 
              0.4605     0.4796     0.4986     0.5175     0.5362 
              0.5549     0.5734     0.5918     0.6102     0.6285 
              0.6466     0.6648     0.6828     0.7102     0.7374 
              0.7643     0.7912     0.8178     0.8443     0.8706 
              0.8968     0.9228     0.9487     0.9744     1.0000 
  Width: 
              0.0278     0.0556     0.0833     0.1111     0.1389 
              0.1667     0.1944     0.2222     0.2500     0.2778 
              0.3056     0.3333     0.3611     0.3889     0.4167 
              0.4444     0.4722     0.5000     0.5203     0.5406 
              0.5609     0.5813     0.6016     0.6219     0.6422 
              0.6625     0.6828     0.7031     0.7234     0.7438 
              0.7641     0.7844     0.8047     0.8250     0.8453 
              0.8656     0.8859     0.9063     0.9141     0.9219 
              0.9297     0.9375     0.9453     0.9531     0.9609 
              0.9688     0.9766     0.9844     0.9922     1.0000 

  Transect C16
  Area:  
              0.0005     0.0019     0.0043     0.0076     0.0119 
              0.0172     0.0234     0.0306     0.0387     0.0478 
              0.0578     0.0688     0.0807     0.0936     0.1075 
              0.1223     0.1379     0.1542     0.1711     0.1887 
              0.2070     0.2259     0.2455     0.2656     0.2864 
              0.3078     0.3297     0.3523     0.3755     0.3992 
              0.4236     0.4486     0.4741     0.5003     0.5271 
              0.5544     0.5824     0.6110     0.6402     0.6699 
              0.7003     0.7313     0.7628     0.7950     0.8278 
              0.8612     0.8951     0.9297     0.9647     1.0000 
  Hrad:  
              0.0177     0.0355     0.0532     0.0709     0.0886 
              0.1064     0.1241     0.1418     0.1595     0.1773 
              0.1950     0.2127     0.2305     0.2482     0.2659 
              0.2836     0.3066     0.3291     0.3512     0.3730 
              0.3945     0.4158     0.4381     0.4602     0.4820 
              0.5036     0.5249     0.5461     0.5671     0.5879 
              0.6086     0.6292     0.6496     0.6699     0.6900 
              0.7101     0.7301     0.7499     0.7697     0.7894 
              0.8090     0.8286     0.8481     0.8675     0.8868 
              0.9061     0.9254     0.9446     0.9724     1.0000 
  Width: 
              0.0270     0.0540     0.0810     0.1080     0.1349 
              0.1619     0.1889     0.2159     0.2429     0.2699 
              0.2969     0.3239     0.3509     0.3778     0.4048 
              0.4318     0.4505     0.4693     0.4880     0.5067 
              0.5254     0.5441     0.5611     0.5781     0.5950 
              0.6120     0.6290     0.6459     0.6629     0.6799 
              0.6968     0.7138     0.7308     0.7477     0.7647 
              0.7817     0.7986     0.8156     0.8326     0.8495 
              0.8665     0.8835     0.9005     0.9174     0.9344 
              0.9514     0.9683     0.9853     0.9926     1.0000 

  Transect C17
  Area:  
              0.0016     0.0065     0.0146     0.0241     0.0340 
              0.0444     0.0553     0.0667     0.0786     0.0909 
              0.1037     0.1170     0.1308     0.1450     0.1597 
              0.1749     0.1906     0.2067     0.2233     0.2404 
              0.2580     0.2760     0.2945     0.3135     0.3330 
              0.3529     0.3734     0.3943     0.4156     0.4375 
              0.4599     0.4829     0.5065     0.5308     0.5556 
              0.5811     0.6072     0.6339     0.6612     0.6891 
              0.7177     0.7468     0.7766     0.8069     0.8379 
              0.8695     0.9015     0.9339     0.9667     1.0000 
  Hrad:  
              0.0174     0.0349     0.0550     0.0860     0.1156 
              0.1439     0.1711     0.1973     0.2227     0.2474 
              0.2715     0.2950     0.3179     0.3404     0.3625 
              0.3842     0.4056     0.4266     0.4474     0.4679 
              0.4882     0.5083     0.5282     0.5478     0.5674 
              0.5867     0.6059     0.6250     0.6439     0.6625 
              0.6775     0.6927     0.7079     0.7232     0.7385 
              0.7539     0.7694     0.7849     0.8005     0.8161 
              0.8318     0.8475     0.8632     0.8790     0.8948 
              0.9140     0.9357     0.9572     0.9787     1.0000 
  Width: 
              0.0971     0.1942     0.2761     0.2904     0.3046 
              0.3188     0.3330     0.3472     0.3615     0.3757 
              0.3899     0.4041     0.4183     0.4326     0.4468 
              0.4610     0.4752     0.4894     0.5037     0.5179 
              0.5321     0.5463     0.5605     0.5748     0.5890 
              0.6032     0.6174     0.6317     0.6459     0.6604 
              0.6787     0.6970     0.7154     0.7337     0.7520 
              0.7703     0.7886     0.8070     0.8253     0.8436 
              0.8619     0.8803     0.8986     0.9169     0.9352 
              0.9502     0.9626     0.9751     0.9875     1.0000 

  Transect C18
  Area:  
              0.0008     0.0031     0.0070     0.0124     0.0194 
              0.0279     0.0380     0.0494     0.0614     0.0738 
              0.0868     0.1002     0.1141     0.1285     0.1434 
              0.1587     0.1746     0.1910     0.2078     0.2251 
              0.2430     0.2613     0.2801     0.2994     0.3191 
              0.3394     0.3602     0.3814     0.4032     0.4254 
              0.4481     0.4713     0.4950     0.5192     0.5438 
              0.5690     0.5946     0.6208     0.6474     0.6745 
              0.7021     0.7302     0.7589     0.7888     0.8203 
              0.8534     0.8880     0.9240     0.9613     1.0000 
  Hrad:  
              0.0199     0.0397     0.0596     0.0794     0.0993 
              0.1192     0.1390     0.1676     0.1996     0.2306 
              0.2607     0.2901     0.3187     0.3467     0.3742 
              0.4011     0.4276     0.4537     0.4793     0.5047 
              0.5296     0.5543     0.5788     0.6029     0.6268 
              0.6506     0.6741     0.6974     0.7205     0.7435 
              0.7663     0.7890     0.8116     0.8340     0.8563 
              0.8785     0.9006     0.9225     0.9444     0.9662 
              0.9879     1.0096     1.0190     1.0064     0.9969 
              0.9901     0.9875     0.9906     0.9947     1.0000 
  Width: 
              0.0394     0.0789     0.1183     0.1578     0.1972 
              0.2367     0.2761     0.2976     0.3100     0.3224 
              0.3349     0.3473     0.3597     0.3722     0.3846 
              0.3970     0.4095     0.4219     0.4343     0.4468 
              0.4592     0.4716     0.4841     0.4965     0.5089 
              0.5214     0.5338     0.5462     0.5587     0.5711 
              0.5835     0.5960     0.6084     0.6208     0.6333 
              0.6457     0.6581     0.6706     0.6830     0.6954 
              0.7079     0.7203     0.7417     0.7812     0.8206 
              0.8601     0.8977     0.9318     0.9659     1.0000 

  Transect C19
  Area:  
              0.0007     0.0028     0.0063     0.0112     0.0176 
              0.0253     0.0344     0.0450     0.0563     0.0682 
              0.0807     0.0938     0.1074     0.1215     0.1362 
              0.1515     0.1673     0.1837     0.2006     0.2181 
              0.2362     0.2548     0.2740     0.2937     0.3140 
              0.3348     0.3562     0.3782     0.4007     0.4238 
              0.4474     0.4716     0.4964     0.5217     0.5475 
              0.5740     0.6010     0.6285     0.6566     0.6852 
              0.7145     0.7442     0.7745     0.8054     0.8369 
              0.8688     0.9011     0.9337     0.9667     1.0000 
  Hrad:  
              0.0168     0.0335     0.0503     0.0670     0.0838 
              0.1006     0.1173     0.1359     0.1621     0.1874 
              0.2120     0.2359     0.2592     0.2820     0.3044 
              0.3264     0.3479     0.3692     0.3902     0.4109 
              0.4313     0.4516     0.4716     0.4915     0.5111 
              0.5307     0.5500     0.5693     0.5884     0.6074 
              0.6263     0.6451     0.6638     0.6824     0.7010 
              0.7194     0.7378     0.7562     0.7744     0.7926 
              0.8108     0.8289     0.8469     0.8649     0.8829 
              0.9050     0.9290     0.9528     0.9765     1.0000 
  Width: 
              0.0420     0.0840     0.1260     0.1680     0.2100 
              0.2520     0.2940     0.3313     0.3479     0.3646 
              0.3813     0.3979     0.4146     0.4313     0.4479 
              0.4646     0.4812     0.4979     0.5146     0.5312 
              0.5479     0.5646     0.5812     0.5979     0.6146 
              0.6312     0.6479     0.6646     0.6812     0.6979 
              0.7146     0.7312     0.7479     0.7646     0.7812 
              0.7979     0.8146     0.8312     0.8479     0.8646 
              0.8812     0.8979     0.9146     0.9312     0.9479 
              0.9600     0.9700     0.9800     0.9900     1.0000 

  Transect C20
  Area:  
              0.0006     0.0022     0.0050     0.0090     0.0140 
              0.0201     0.0274     0.0358     0.0453     0.0560 
              0.0677     0.0804     0.0935     0.1073     0.1215 
              0.1364     0.1517     0.1676     0.1841     0.2010 
              0.2186     0.2366     0.2552     0.2744     0.2941 
              0.3143     0.3351     0.3564     0.3783     0.4007 
              0.4236     0.4471     0.4711     0.4958     0.5212 
              0.5475     0.5746     0.6025     0.6312     0.6608 
              0.6911     0.7223     0.7543     0.7872     0.8208 
              0.8553     0.8906     0.9265     0.9630     1.0000 
  Hrad:  
              0.0188     0.0376     0.0564     0.0752     0.0940 
              0.1128     0.1316     0.1504     0.1692     0.1881 
              0.2069     0.2338     0.2610     0.2875     0.3134 
              0.3387     0.3636     0.3880     0.4121     0.4357 
              0.4591     0.4821     0.5049     0.5274     0.5498 
              0.5719     0.5938     0.6155     0.6371     0.6585 
              0.6798     0.7009     0.7219     0.7376     0.7509 
              0.7645     0.7785     0.7927     0.8071     0.8218 
              0.8367     0.8518     0.8671     0.8826     0.8982 
              0.9139     0.9321     0.9549     0.9775     1.0000 
  Width: 
              0.0300     0.0600     0.0900     0.1200     0.1500 
              0.1800     0.2100     0.2400     0.2700     0.3000 
              0.3300     0.3463     0.3608     0.3753     0.3898 
              0.4044     0.4189     0.4334     0.4480     0.4625 
              0.4770     0.4916     0.5061     0.5206     0.5352 
              0.5497     0.5642     0.5788     0.5933     0.6078 
              0.6223     0.6369     0.6514     0.6709     0.6930 
              0.7150     0.7370     0.7591     0.7811     0.8031 
              0.8252     0.8472     0.8692     0.8913     0.9133 
              0.9353     0.9550     0.9700     0.9850     1.0000 

  Transect C21
  Area:  
              0.0006     0.0025     0.0056     0.0099     0.0154 
              0.0222     0.0302     0.0394     0.0495     0.0606 
              0.0726     0.0855     0.0993     0.1141     0.1298 
              0.1464     0.1639     0.1824     0.2013     0.2207 
              0.2406     0.2608     0.2815     0.3026     0.3241 
              0.3461     0.3685     0.3913     0.4145     0.4382 
              0.4623     0.4868     0.5117     0.5371     0.5629 
              0.5891     0.6158     0.6429     0.6704     0.6983 
              0.7267     0.7555     0.7847     0.8143     0.8444 
              0.8749     0.9058     0.9371     0.9685     1.0000 
  Hrad:  
              0.0159     0.0319     0.0478     0.0637     0.0797 
              0.0956     0.1115     0.1298     0.1489     0.1675 
              0.1857     0.2035     0.2212     0.2386     0.2558 
              0.2729     0.2898     0.3095     0.3339     0.3580 
              0.3818     0.4051     0.4282     0.4510     0.4734 
              0.4957     0.5176     0.5393     0.5609     0.5822 
              0.6032     0.6242     0.6449     0.6654     0.6858 
              0.7061     0.7262     0.7461     0.7660     0.7857 
              0.8052     0.8247     0.8440     0.8633     0.8824 
              0.9015     0.9204     0.9467     0.9734     1.0000 
  Width: 
              0.0390     0.0780     0.1170     0.1560     0.1950 
              0.2340     0.2730     0.3057     0.3350     0.3643 
              0.3936     0.4229     0.4521     0.4814     0.5107 
              0.5400     0.5693     0.5930     0.6065     0.6200 
              0.6335     0.6470     0.6605     0.6740     0.6875 
              0.7010     0.7145     0.7280     0.7415     0.7550 
              0.7685     0.7820     0.7955     0.8090     0.8225 
              0.8360     0.8495     0.8630     0.8765     0.8900 
              0.9035     0.9170     0.9305     0.9440     0.9575 
              0.9710     0.9845     0.9900     0.9950     1.0000 

  Transect C22
  Area:  
              0.0005     0.0018     0.0041     0.0072     0.0113 
              0.0163     0.0221     0.0289     0.0366     0.0452 
              0.0556     0.0709     0.0884     0.1063     0.1246 
              0.1432     0.1623     0.1817     0.2015     0.2216 
              0.2421     0.2630     0.2843     0.3060     0.3280 
              0.3504     0.3732     0.3964     0.4199     0.4438 
              0.4681     0.4928     0.5179     0.5433     0.5691 
              0.5952     0.6218     0.6487     0.6760     0.7037 
              0.7317     0.7602     0.7890     0.8181     0.8477 
              0.8776     0.9079     0.9385     0.9692     1.0000 
  Hrad:  
              0.0155     0.0311     0.0466     0.0622     0.0777 
              0.0933     0.1088     0.1244     0.1399     0.1555 
              0.1358     0.1274     0.1555     0.1830     0.2101 
              0.2366     0.2627     0.2884     0.3137     0.3386 
              0.3632     0.3874     0.4113     0.4349     0.4582 
              0.4813     0.5041     0.5266     0.5490     0.5711 
              0.5929     0.6146     0.6361     0.6574     0.6786 
              0.6995     0.7203     0.7410     0.7615     0.7819 
              0.8021     0.8222     0.8421     0.8620     0.8817 
              0.9013     0.9220     0.9481     0.9741     1.0000 
  Width: 
              0.0292     0.0585     0.0877     0.1169     0.1462 
              0.1754     0.2046     0.2338     0.2631     0.2923 
              0.4125     0.5607     0.5728     0.5850     0.5972 
              0.6093     0.6215     0.6336     0.6458     0.6580 
              0.6701     0.6823     0.6944     0.7066     0.7188 
              0.7309     0.7431     0.7552     0.7674     0.7795 
              0.7917     0.8039     0.8160     0.8282     0.8403 
              0.8525     0.8647     0.8768     0.8890     0.9011 
              0.9133     0.9255     0.9376     0.9498     0.9619 
              0.9741     0.9850     0.9900     0.9950     1.0000 

  Transect C23
  Area:  
              0.0004     0.0015     0.0035     0.0062     0.0096 
              0.0139     0.0189     0.0246     0.0312     0.0385 
              0.0466     0.0555     0.0651     0.0755     0.0866 
              0.0986     0.1113     0.1248     0.1390     0.1540 
              0.1698     0.1864     0.2037     0.2218     0.2407 
              0.2603     0.2807     0.3018     0.3237     0.3464 
              0.3700     0.3945     0.4200     0.4465     0.4739 
              0.5023     0.5316     0.5620     0.5932     0.6255 
              0.6587     0.6928     0.7280     0.7641     0.8011 
              0.8391     0.8781     0.9180     0.9588     1.0000 
  Hrad:  
              0.0206     0.0412     0.0618     0.0824     0.1030 
              0.1236     0.1442     0.1649     0.1855     0.2061 
              0.2267     0.2473     0.2679     0.2885     0.3091 
              0.3297     0.3503     0.3709     0.3915     0.4121 
              0.4327     0.4533     0.4739     0.4946     0.5153 
              0.5362     0.5571     0.5780     0.5989     0.6180 
              0.6339     0.6503     0.6669     0.6838     0.7011 
              0.7185     0.7362     0.7540     0.7721     0.7903 
              0.8086     0.8271     0.8457     0.8644     0.8833 
              0.9022     0.9212     0.9404     0.9683     1.0000 
  Width: 
              0.0186     0.0372     0.0558     0.0744     0.0930 
              0.1116     0.1302     0.1488     0.1674     0.1860 
              0.2046     0.2232     0.2418     0.2604     0.2790 
              0.2976     0.3162     0.3348     0.3534     0.3720 
              0.3906     0.4092     0.4278     0.4464     0.4649 
              0.4831     0.5014     0.5197     0.5379     0.5579 
              0.5811     0.6044     0.6276     0.6508     0.6741 
              0.6973     0.7206     0.7438     0.7671     0.7903 
              0.8135     0.8368     0.8600     0.8833     0.9065 
              0.9298     0.9530     0.9762     0.9902     1.0000 

  Transect C24
  Area:  
              0.0008     0.0031     0.0070     0.0124     0.0194 
              0.0279     0.0373     0.0475     0.0586     0.0705 
              0.0833     0.0969     0.1114     0.1268     0.1430 
              0.1600     0.1778     0.1961     0.2148     0.2339 
              0.2534     0.2734     0.2937     0.3145     0.3358 
              0.3574     0.3795     0.4020     0.4249     0.4482 
              0.4720     0.4962     0.5208     0.5459     0.5713 
              0.5972     0.6235     0.6502     0.6774     0.7050 
              0.7330     0.7614     0.7902     0.8195     0.8492 
              0.8790     0.9090     0.9392     0.9695     1.0000 
  Hrad:  
              0.0156     0.0311     0.0467     0.0622     0.0778 
              0.0970     0.1182     0.1385     0.1580     0.1770 
              0.1955     0.2136     0.2315     0.2490     0.2664 
              0.2835     0.3050     0.3284     0.3514     0.3740 
              0.3963     0.4183     0.4400     0.4614     0.4826 
              0.5035     0.5242     0.5446     0.5649     0.5850 
              0.6049     0.6246     0.6441     0.6635     0.6828 
              0.7019     0.7209     0.7397     0.7584     0.7771 
              0.7956     0.8140     0.8323     0.8505     0.8721 
              0.8979     0.9236     0.9492     0.9746     1.0000 
  Width: 
              0.0509     0.1018     0.1527     0.2036     0.2545 
              0.2927     0.3207     0.3486     0.3766     0.4045 
              0.4325     0.4605     0.4884     0.5164     0.5443 
              0.5723     0.5909     0.6047     0.6186     0.6325 
              0.6463     0.6602     0.6740     0.6879     0.7018 
              0.7156     0.7295     0.7433     0.7572     0.7711 
              0.7849     0.7988     0.8126     0.8265     0.8404 
              0.8542     0.8681     0.8819     0.8958     0.9096 
              0.9235     0.9374     0.9512     0.9651     0.9750 
              0.9800     0.9850     0.9900     0.9950     1.0000 

  Transect C25
  Area:  
              0.0004     0.0017     0.0039     0.0069     0.0108 
              0.0156     0.0213     0.0278     0.0351     0.0434 
              0.0525     0.0625     0.0733     0.0850     0.0976 
              0.1110     0.1253     0.1405     0.1565     0.1731 
              0.1904     0.2083     0.2268     0.2460     0.2659 
              0.2864     0.3075     0.3293     0.3519     0.3752 
              0.3993     0.4241     0.4497     0.4761     0.5032 
              0.5311     0.5597     0.5891     0.6193     0.6502 
              0.6819     0.7143     0.7475     0.7815     0.8162 
              0.8517     0.8879     0.9249     0.9623     1.0000 
  Hrad:  
              0.0189     0.0379     0.0568     0.0758     0.0947 
              0.1137     0.1326     0.1516     0.1705     0.1895 
              0.2084     0.2274     0.2463     0.2653     0.2842 
              0.3032     0.3221     0.3411     0.3639     0.3872 
              0.4102     0.4329     0.4554     0.4776     0.4996 
              0.5214     0.5431     0.5625     0.5811     0.5998 
              0.6184     0.6371     0.6558     0.6745     0.6932 
              0.7120     0.7307     0.7495     0.7682     0.7870 
              0.8058     0.8246     0.8434     0.8622     0.8810 
              0.8998     0.9186     0.9405     0.9703     1.0000 
  Width: 
              0.0229     0.0458     0.0687     0.0917     0.1146 
              0.1375     0.1604     0.1833     0.2062     0.2292 
              0.2521     0.2750     0.2979     0.3208     0.3437 
              0.3667     0.3896     0.4125     0.4306     0.4476 
              0.4646     0.4817     0.4987     0.5157     0.5327 
              0.5498     0.5668     0.5860     0.6061     0.6262 
              0.6463     0.6663     0.6864     0.7065     0.7266 
              0.7467     0.7667     0.7868     0.8069     0.8270 
              0.8471     0.8671     0.8872     0.9073     0.9274 
              0.9475     0.9675     0.9843     0.9921     1.0000 

  Transect C26
  Area:  
              0.0005     0.0021     0.0048     0.0086     0.0134 
              0.0193     0.0263     0.0344     0.0435     0.0537 
              0.0650     0.0773     0.0904     0.1041     0.1183 
              0.1331     0.1484     0.1643     0.1808     0.1978 
              0.2154     0.2335     0.2522     0.2714     0.2912 
              0.3115     0.3324     0.3539     0.3759     0.3985 
              0.4216     0.4454     0.4700     0.4952     0.5213 
              0.5480     0.5755     0.6038     0.6328     0.6625 
              0.6930     0.7242     0.7562     0.7889     0.8223 
              0.8565     0.8915     0.9271     0.9633     1.0000 
  Hrad:  
              0.0185     0.0369     0.0554     0.0739     0.0923 
              0.1108     0.1293     0.1478     0.1662     0.1847 
              0.2032     0.2225     0.2494     0.2756     0.3013 
              0.3264     0.3510     0.3752     0.3990     0.4225 
              0.4457     0.4685     0.4912     0.5135     0.5357 
              0.5577     0.5794     0.6010     0.6225     0.6438 
              0.6647     0.6806     0.6967     0.7129     0.7292 
              0.7457     0.7622     0.7789     0.7956     0.8125 
              0.8294     0.8463     0.8634     0.8805     0.8977 
              0.9149     0.9322     0.9521     0.9761     1.0000 
  Width: 
              0.0291     0.0582     0.0872     0.1163     0.1454 
              0.1745     0.2035     0.2326     0.2617     0.2908 
              0.3198     0.3476     0.3627     0.3777     0.3928 
              0.4079     0.4230     0.4381     0.4531     0.4682 
              0.4833     0.4984     0.5134     0.5285     0.5436 
              0.5587     0.5737     0.5888     0.6039     0.6190 
              0.6343     0.6544     0.6745     0.6947     0.7148 
              0.7349     0.7550     0.7752     0.7953     0.8154 
              0.8355     0.8557     0.8758     0.8959     0.9160 
              0.9362     0.9563     0.9738     0.9869     1.0000 

  Transect C29
  Area:  
              0.0008     0.0030     0.0068     0.0122     0.0190 
              0.0273     0.0372     0.0483     0.0600     0.0723 
              0.0852     0.0987     0.1127     0.1274     0.1426 
              0.1584     0.1748     0.1918     0.2094     0.2276 
              0.2463     0.2655     0.2852     0.3054     0.3261 
              0.3473     0.3689     0.3911     0.4137     0.4368 
              0.4604     0.4845     0.5091     0.5341     0.5597 
              0.5857     0.6122     0.6392     0.6667     0.6947 
              0.7232     0.7522     0.7816     0.8115     0.8420 
              0.8729     0.9043     0.9360     0.9679     1.0000 
  Hrad:  
              0.0166     0.0332     0.0499     0.0665     0.0831 
              0.0997     0.1163     0.1405     0.1657     0.1900 
              0.2135     0.2364     0.2587     0.2804     0.3018 
              0.3227     0.3433     0.3635     0.3835     0.4032 
              0.4246     0.4458     0.4668     0.4875     0.5080 
              0.5282     0.5483     0.5682     0.5878     0.6073 
              0.6267     0.6459     0.6650     0.6839     0.7027 
              0.7214     0.7400     0.7585     0.7769     0.7952 
              0.8134     0.8315     0.8496     0.8675     0.8854 
              0.9033     0.9213     0.9477     0.9739     1.0000 
  Width: 
              0.0472     0.0944     0.1416     0.1888     0.2359 
              0.2831     0.3303     0.3543     0.3726     0.3909 
              0.4092     0.4275     0.4458     0.4641     0.4824 
              0.5007     0.5190     0.5372     0.5555     0.5738 
              0.5892     0.6043     0.6195     0.6346     0.6498 
              0.6649     0.6800     0.6952     0.7103     0.7254 
              0.7406     0.7557     0.7708     0.7860     0.8011 
              0.8163     0.8314     0.8465     0.8617     0.8768 
              0.8919     0.9071     0.9222     0.9374     0.9525 
              0.9676     0.9825     0.9883     0.9942     1.0000 

  Transect C30
  Area:  
              0.0009     0.0037     0.0083     0.0147     0.0230 
              0.0331     0.0445     0.0566     0.0695     0.0832 
              0.0977     0.1129     0.1288     0.1452     0.1620 
              0.1791     0.1967     0.2147     0.2331     0.2519 
              0.2711     0.2907     0.3108     0.3312     0.3520 
              0.3732     0.3949     0.4169     0.4394     0.4622 
              0.4855     0.5091     0.5332     0.5577     0.5825 
              0.6078     0.6335     0.6596     0.6861     0.7130 
              0.7403     0.7680     0.7961     0.8246     0.8534 
              0.8824     0.9115     0.9409     0.9703     1.0000 
  Hrad:  
              0.0153     0.0306     0.0459     0.0612     0.0765 
              0.0920     0.1156     0.1381     0.1598     0.1807 
              0.2011     0.2209     0.2428     0.2668     0.2903 
              0.3135     0.3362     0.3586     0.3806     0.4023 
              0.4237     0.4449     0.4657     0.4864     0.5068 
              0.5270     0.5470     0.5668     0.5864     0.6058 
              0.6251     0.6442     0.6632     0.6820     0.7007 
              0.7193     0.7377     0.7561     0.7743     0.7924 
              0.8104     0.8284     0.8462     0.8640     0.8870 
              0.9100     0.9327     0.9553     0.9777     1.0000 
  Width: 
              0.0618     0.1236     0.1855     0.2473     0.3091 
              0.3701     0.3958     0.4215     0.4472     0.4728 
              0.4985     0.5242     0.5438     0.5575     0.5711 
              0.5847     0.5983     0.6119     0.6255     0.6391 
              0.6527     0.6663     0.6799     0.6936     0.7072 
              0.7208     0.7344     0.7480     0.7616     0.7752 
              0.7888     0.8024     0.8160     0.8297     0.8433 
              0.8569     0.8705     0.8841     0.8977     0.9113 
              0.9249     0.9385     0.9521     0.9658     0.9716 
              0.9773     0.9830     0.9886     0.9943     1.0000 

  Transect C31
  Area:  
              0.0007     0.0027     0.0061     0.0109     0.0170 
              0.0245     0.0333     0.0435     0.0551     0.0680 
              0.0823     0.0980     0.1149     0.1322     0.1500 
              0.1681     0.1866     0.2054     0.2247     0.2443 
              0.2642     0.2845     0.3052     0.3263     0.3477 
              0.3695     0.3917     0.4142     0.4371     0.4604 
              0.4841     0.5081     0.5325     0.5572     0.5823 
              0.6078     0.6337     0.6599     0.6865     0.7134 
              0.7408     0.7685     0.7965     0.8250     0.8536 
              0.8825     0.9116     0.9409     0.9703     1.0000 
  Hrad:  
              0.0149     0.0298     0.0447     0.0596     0.0745 
              0.0894     0.1043     0.1192     0.1341     0.1490 
              0.1639     0.1788     0.1991     0.2244     0.2492 
              0.2737     0.2978     0.3215     0.3449     0.3680 
              0.3907     0.4132     0.4354     0.4574     0.4791 
              0.5006     0.5218     0.5429     0.5638     0.5844 
              0.6049     0.6252     0.6454     0.6654     0.6853 
              0.7050     0.7245     0.7440     0.7633     0.7825 
              0.8015     0.8205     0.8394     0.8594     0.8831 
              0.9067     0.9302     0.9536     0.9769     1.0000 
  Width: 
              0.0457     0.0914     0.1371     0.1829     0.2286 
              0.2743     0.3200     0.3657     0.4114     0.4571 
              0.5029     0.5486     0.5776     0.5900     0.6024 
              0.6148     0.6271     0.6395     0.6519     0.6643 
              0.6767     0.6890     0.7014     0.7138     0.7262 
              0.7386     0.7510     0.7633     0.7757     0.7881 
              0.8005     0.8129     0.8252     0.8376     0.8500 
              0.8624     0.8748     0.8871     0.8995     0.9119 
              0.9243     0.9367     0.9490     0.9600     0.9667 
              0.9733     0.9800     0.9867     0.9933     1.0000 

  Transect C32
  Area:  
              0.0009     0.0035     0.0079     0.0141     0.0220 
              0.0317     0.0423     0.0536     0.0654     0.0778 
              0.0908     0.1043     0.1184     0.1331     0.1484 
              0.1643     0.1807     0.1977     0.2153     0.2335 
              0.2523     0.2715     0.2912     0.3114     0.3321 
              0.3532     0.3748     0.3969     0.4194     0.4424 
              0.4659     0.4898     0.5142     0.5391     0.5644 
              0.5902     0.6165     0.6432     0.6704     0.6981 
              0.7263     0.7549     0.7839     0.8135     0.8435 
              0.8740     0.9049     0.9363     0.9680     1.0000 
  Hrad:  
              0.0162     0.0323     0.0485     0.0647     0.0809 
              0.0988     0.1250     0.1502     0.1745     0.1981 
              0.2210     0.2433     0.2651     0.2864     0.3074 
              0.3280     0.3483     0.3683     0.3880     0.4075 
              0.4272     0.4487     0.4699     0.4909     0.5117 
              0.5322     0.5526     0.5727     0.5927     0.6125 
              0.6322     0.6517     0.6711     0.6904     0.7095 
              0.7285     0.7475     0.7663     0.7850     0.8036 
              0.8222     0.8406     0.8590     0.8773     0.8955 
              0.9137     0.9318     0.9527     0.9764     1.0000 
  Width: 
              0.0549     0.1097     0.1646     0.2194     0.2743 
              0.3230     0.3410     0.3590     0.3770     0.3950 
              0.4130     0.4310     0.4490     0.4670     0.4850 
              0.5030     0.5210     0.5390     0.5570     0.5750 
              0.5924     0.6070     0.6216     0.6361     0.6507 
              0.6653     0.6799     0.6944     0.7090     0.7236 
              0.7381     0.7527     0.7673     0.7819     0.7964 
              0.8110     0.8256     0.8401     0.8547     0.8693 
              0.8839     0.8984     0.9130     0.9276     0.9421 
              0.9567     0.9713     0.9829     0.9914     1.0000 

  Transect C33
  Area:  
              0.0005     0.0020     0.0044     0.0079     0.0123 
              0.0177     0.0241     0.0315     0.0399     0.0493 
              0.0596     0.0710     0.0833     0.0966     0.1109 
              0.1259     0.1417     0.1580     0.1751     0.1928 
              0.2111     0.2301     0.2497     0.2699     0.2908 
              0.3123     0.3344     0.3572     0.3806     0.4046 
              0.4292     0.4545     0.4804     0.5070     0.5341 
              0.5619     0.5904     0.6194     0.6491     0.6794 
              0.7104     0.7416     0.7731     0.8048     0.8367 
              0.8689     0.9013     0.9340     0.9669     1.0000 
  Hrad:  
              0.0167     0.0334     0.0501     0.0667     0.0834 
              0.1001     0.1168     0.1335     0.1502     0.1668 
              0.1835     0.2002     0.2169     0.2336     0.2511 
              0.2729     0.2942     0.3152     0.3359     0.3565 
              0.3772     0.3976     0.4177     0.4377     0.4574 
              0.4769     0.4963     0.5156     0.5346     0.5536 
              0.5724     0.5912     0.6098     0.6283     0.6468 
              0.6651     0.6834     0.7016     0.7197     0.7378 
              0.7594     0.7867     0.8139     0.8410     0.8678 
              0.8946     0.9211     0.9476     0.9739     1.0000 
  Width: 
              0.0296     0.0593     0.0889     0.1186     0.1482 
              0.1779     0.2075     0.2371     0.2668     0.2964 
              0.3261     0.3557     0.3853     0.4150     0.4431 
              0.4630     0.4829     0.5028     0.5228     0.5422 
              0.5612     0.5801     0.5991     0.6181     0.6370 
              0.6560     0.6750     0.6939     0.7129     0.7319 
[...]
  
  ******************
  Node Depth Summary
  ******************
  
  ---------------------------------------------------------------------------------
                                 Average  Maximum  Maximum  Time of Max    Reported
                                   Depth    Depth      HGL   Occurrence   Max Depth
  Node                 Type       Meters   Meters   Meters  days hr:min      Meters
  ---------------------------------------------------------------------------------
  J1                   JUNCTION   524.48   579.76  1159.36     0  04:17      579.74
  J2                   JUNCTION   525.11   571.18  1146.18     0  11:12      571.18
  J3                   JUNCTION   518.60   565.30  1133.30     0  03:33      565.17
  J4                   JUNCTION   524.09   579.27  1158.27     0  08:06      579.27
  J5                   JUNCTION   524.38   578.61  1156.61     0  04:15      578.35
  J6                   JUNCTION   514.12   573.69  1145.69     0  04:12      573.63
  J7                   JUNCTION   514.05   573.00  1141.00     0  04:08      572.92
  J8                   JUNCTION   525.49   587.02  1173.82     0  08:06      587.02
  J9                   JUNCTION   518.38   574.18  1148.38     0  04:13      574.15
  J10                  JUNCTION   520.82   586.33  1172.23     0  04:52      586.28
  J11                  JUNCTION   508.38   586.00  1162.30     0  04:53      585.90
  J12                  JUNCTION   507.64   573.69  1140.69     0  04:14      573.68
  J13                  JUNCTION   507.66   557.15  1122.75     0  16:43      557.15
  J14                  JUNCTION   508.62   566.42  1122.72     0  16:57      566.42
  J15                  JUNCTION     8.17    12.53   557.13     1  12:00       12.53
  J16                  JUNCTION   507.72   555.29  1117.89     0  04:01      555.29
  J17                  JUNCTION   501.83   559.50  1119.60     0  03:35      558.29
  J18                  JUNCTION     0.40     2.77   561.57     0  03:42        2.70
  J19                  JUNCTION   495.89   548.37  1086.57     0  08:24      548.37
  J20                  JUNCTION   506.49   557.79  1121.79     0  07:47      557.79
  J21                  JUNCTION   510.98   564.71  1128.71     0  04:06      564.52
  J22                  JUNCTION   492.85   557.88  1118.68     0  04:06      556.46
  J23                  JUNCTION   492.88   559.00  1114.00     0  04:06      557.61
  J24                  JUNCTION   495.55   543.47  1093.47     0  04:31      543.44
  J25                  JUNCTION   481.92   532.13  1063.43     0  04:01      532.08
  J26                  JUNCTION   474.23   531.13  1060.33     0  04:04      530.60
  J28                  JUNCTION   505.45   573.52  1146.82     0  08:22      573.52
  J29                  JUNCTION   448.43   561.08  1121.18     0  07:41      560.97
  J30                  JUNCTION   496.31   552.55  1104.55     0  07:59      552.55
  J31                  JUNCTION   483.01   552.28  1102.18     0  04:31      551.69
  J32                  JUNCTION   488.20   541.16  1085.06     0  04:37      540.94
  J33                  JUNCTION   482.97   544.80  1082.30     0  04:31      542.77
  J34                  JUNCTION   483.49   542.88  1077.08     0  04:50      542.86
  J35                  JUNCTION   473.71   528.70  1056.20     0  04:54      528.69
  J27                  JUNCTION   469.99   531.00  1058.10     0  04:04      531.00
  J36                  JUNCTION   467.83   528.03  1054.33     0  04:56      528.02
  OUT1                 OUTFALL      0.00     0.00   524.60     0  00:00        0.00
  
  
  *******************
  Node Inflow Summary
  *******************
  
  -------------------------------------------------------------------------------------------------
                                  Maximum  Maximum                  Lateral       Total        Flow
                                  Lateral    Total  Time of Max      Inflow      Inflow     Balance
                                   Inflow   Inflow   Occurrence      Volume      Volume       Error
  Node                 Type           CMS      CMS  days hr:min    10^6 ltr    10^6 ltr     Percent
  -------------------------------------------------------------------------------------------------
  J1                   JUNCTION     0.422    0.422     0  07:00        8.52        8.52     -12.886
  J2                   JUNCTION     0.744    1.116     0  07:23        14.9        24.7     102.948
  J3                   JUNCTION     0.997    1.024     0  08:00          21        33.2     -24.308
  J4                   JUNCTION     0.684    0.684     0  08:00        14.7        14.7       6.623
  J5                   JUNCTION     0.564    0.564     0  07:00        11.9        11.9     -36.947
  J6                   JUNCTION     0.371   13.863     0  04:07        7.79        40.4     -74.985
  J7                   JUNCTION     0.527   40.238     0  04:59        11.3         173     -77.190
  J8                   JUNCTION     0.280    0.280     0  07:00        5.58        5.58      19.067
  J9                   JUNCTION     0.867    1.115     0  08:00        19.5        24.2     -35.200
  J10                  JUNCTION     0.499    0.499     0  08:00        11.4        11.4     -38.076
  J11                  JUNCTION     0.668    6.782     0  04:52        22.9        41.4     -95.267
  J12                  JUNCTION     1.443   37.337     0  09:06        71.7         983     -55.769
  J13                  JUNCTION     3.314   17.919     0  15:11         116         205       7.789
  J14                  JUNCTION     2.741   59.614     0  14:41         144    2.56e+03     390.203
  J15                  JUNCTION     1.124  205.502     0  03:44          82    1.08e+031078999957.088 ltr
  J16                  JUNCTION     3.593   69.446     0  03:36         118         244       6.460
  J17                  JUNCTION     0.537   55.861     0  03:35        22.8         252     -59.198
  J18                  JUNCTION     0.078  786.171     0  03:35        1.84         536      -4.965
  J19                  JUNCTION     4.969  792.255     0  04:31         371    3.52e+03     117.185
  J20                  JUNCTION     1.377   51.349     0  07:47        32.1         789       3.788
  J21                  JUNCTION     1.049    1.049     0  08:00        24.1        24.1     -48.819
  J22                  JUNCTION     0.472   37.318     0  04:06        36.9          84     -61.112
  J23                  JUNCTION     1.466  499.134     0  04:06        67.4    1.04e+03     -58.316
  J24                  JUNCTION     7.145  900.824     0  04:30         329    2.83e+03     -10.130
  J25                  JUNCTION     2.876    2.876     0  10:00         122         122     -26.031
  J26                  JUNCTION     2.101   62.002     0  08:25         172    1.96e+03     -10.569
  J28                  JUNCTION     0.388    0.388     0  08:00        9.04        9.04      22.923
  J29                  JUNCTION     0.788    0.969     0  12:00        27.8        35.1     -41.670
  J30                  JUNCTION     1.623   38.466     0  07:41        52.6         113      -8.121
  J31                  JUNCTION     0.000    9.578     0  07:59           0         123     -61.769
  J32                  JUNCTION     3.252  220.307     0  04:31         170         491       0.534
  J33                  JUNCTION     1.342  111.130     0  04:37        58.6         547     -21.349
  J34                  JUNCTION     1.669  490.174     0  04:33          82         777      -1.708
  J35                  JUNCTION     2.707   74.307     0  04:50         182         972      -0.313
  J27                  JUNCTION     0.000  231.481     0  04:04           0    2.19e+03      -5.230
  J36                  JUNCTION     0.000  138.970     0  04:04           0    3.19e+03       0.896
  OUT1                 OUTFALL      0.000  125.828     0  04:56           0    3.17e+03       0.000
  
  
  **********************
  Node Surcharge Summary
  **********************
  
  Surcharging occurs when water rises above the top of the highest conduit.
  ---------------------------------------------------------------------
                                               Max. Height   Min. Depth
                                   Hours       Above Crown    Below Rim
  Node                 Type      Surcharged         Meters       Meters
  ---------------------------------------------------------------------
  J7                   JUNCTION        0.01          0.000        0.000
  J11                  JUNCTION        0.01          0.000        0.000
  J17                  JUNCTION        0.01          0.000        0.000
  J23                  JUNCTION        0.01          0.000        0.000
  J33                  JUNCTION        0.01          0.000        0.000
  J27                  JUNCTION        0.41          0.000        0.000
  
  
  *********************
  Node Flooding Summary
  *********************
  
  Flooding refers to all water that overflows a node, whether it ponds or not.
  --------------------------------------------------------------------------
                                                             Total   Maximum
                                 Maximum   Time of Max       Flood    Ponded
                        Hours       Rate    Occurrence      Volume     Depth
  Node                 Flooded       CMS   days hr:min    10^6 ltr    Meters
  --------------------------------------------------------------------------
  J7                      0.01    20.146      0  04:08       0.201     0.000
  J17                     0.01    37.690      0  03:35       0.184     0.000
  J23                     0.01   103.101      0  04:06       1.031     0.000
  J33                     0.01     2.427      0  04:31       0.024     0.000
  J27                     0.41   171.240      0  04:05      91.562     0.000
  
  
  ***********************
  Outfall Loading Summary
  ***********************
  
  -----------------------------------------------------------
                         Flow       Avg       Max       Total
                         Freq      Flow      Flow      Volume
  Outfall Node           Pcnt       CMS       CMS    10^6 ltr
  -----------------------------------------------------------
  OUT1                  88.48    27.599   125.828    3165.165
  -----------------------------------------------------------
  System                88.48    27.599   125.828    3165.165
  
  
  ********************
  Link Flow Summary
  ********************
  
  -----------------------------------------------------------------------------
                                 Maximum  Time of Max   Maximum    Max/    Max/
                                  |Flow|   Occurrence   |Veloc|    Full    Full
  Link                 Type          CMS  days hr:min     m/sec    Flow   Depth
  -----------------------------------------------------------------------------
  C1                   CHANNEL     0.771     0  04:17      0.14    0.00    0.13
  C2                   CHANNEL     0.425     0  11:12      0.56    0.00    0.02
  C3                   CHANNEL    13.751     0  04:07      2.26    0.01    0.55
  C4                   CHANNEL     0.661     0  08:06      0.82    0.00    0.50
  C5                   CHANNEL    40.000     0  04:08      0.47    0.03    1.00
  C6                   CHANNEL    50.000     0  04:08      1.82    0.03    0.62
  C7                   CHANNEL     0.250     0  08:06      0.86    0.00    0.02
  C8                   CHANNEL     6.654     0  04:52      1.95    0.00    0.52
  C9                   CHANNEL    11.886     0  04:13      2.26    0.00    0.54
  C10                  CHANNEL    35.000     0  04:53      0.35    0.00    0.83
  C11                  CHANNEL    50.000     0  04:14      0.27    0.01    0.68
  C12                  CHANNEL    16.654     0  15:11      2.27    0.00    0.57
  C13                  CHANNEL    80.000     0  04:14      1.62    0.02    0.50
  C14                  CHANNEL    14.277     0  03:33    >50.00    0.00    0.53
  C15                  CHANNEL    60.000     0  03:36      0.91    0.20    0.98
  C16                  CHANNEL   786.171     0  03:35      5.73    1.09    0.99
  C18                  CHANNEL     0.000     0  00:00      0.00    0.00    0.00
  C19                  CHANNEL    37.298     0  04:06      2.41    0.05    0.61
  C20                  CHANNEL    51.293     0  07:48      2.27    0.02    0.51
  C21                  CHANNEL   498.971     0  04:06      2.02    0.12    0.71
  C22                  CHANNEL   900.000     0  04:06      3.27    0.26    0.97
  C23                  CHANNEL   791.913     0  04:31      3.35    0.20    0.77
  C24                  CHANNEL    58.206     0  08:24      2.40    0.01    0.39
  C25                  CHANNEL    10.107     0  04:01      0.96    0.08    0.69
  C26                  CHANNEL   231.481     0  04:04      2.04    1.00    1.00
  C27                  CHANNEL   138.970     0  04:04      2.85    2.42    1.00
  C28                  CHANNEL   125.828     0  04:56      2.61    0.30    0.60
  C29                  CHANNEL     0.361     0  08:22      1.91    0.00    0.04
  C30                  CHANNEL    36.995     0  07:41      2.31    0.00    0.11
  C31                  CHANNEL     9.578     0  07:59      0.71    0.03    0.56
  C32                  CHANNEL   220.000     0  04:31      3.75    0.08    0.31
  C33                  CHANNEL   110.966     0  04:37      1.15    0.03    0.60
  C34                  CHANNEL   490.000     0  04:32      4.17    0.45    0.99
  C35                  CHANNEL    74.041     0  04:50      2.09    0.03    0.50
  C36                  CHANNEL    73.011     0  04:54      0.97    0.34    0.81
  C17                  CHANNEL   205.466     0  03:44      4.47    0.03    0.45
  
  
  ***************************
  Flow Classification Summary
  ***************************
  
  -------------------------------------------------------------------------------------
                      Adjusted    ---------- Fraction of Time in Flow Class ---------- 
                       /Actual         Up    Down  Sub   Sup   Up    Down  Norm  Inlet 
  Conduit               Length    Dry  Dry   Dry   Crit  Crit  Crit  Crit  Ltd   Ctrl  
  -------------------------------------------------------------------------------------
  C1                      1.00   0.10  0.02  0.00  0.88  0.00  0.00  0.00  0.88  0.00
  C2                      1.00   0.10  0.11  0.00  0.02  0.00  0.00  0.77  0.01  0.00
  C3                      1.00   0.11  0.00  0.00  0.02  0.00  0.00  0.87  0.02  0.00
  C4                      1.00   0.12  0.00  0.00  0.02  0.00  0.00  0.86  0.02  0.00
  C5                      1.00   0.11  0.00  0.00  0.88  0.00  0.00  0.00  0.86  0.00
  C6                      1.00   0.11  0.00  0.00  0.00  0.00  0.00  0.89  0.00  0.00
  C7                      1.00   0.13  0.00  0.00  0.00  0.00  0.00  0.87  0.00  0.00
  C8                      1.00   0.14  0.00  0.00  0.20  0.00  0.00  0.67  0.19  0.00
  C9                      1.00   0.12  0.00  0.00  0.88  0.00  0.00  0.00  0.88  0.00
  C10                     1.00   0.12  0.02  0.00  0.86  0.00  0.00  0.00  0.69  0.00
  C11                     1.00   0.12  0.00  0.00  0.88  0.00  0.00  0.00  0.59  0.00
  C12                     1.00   0.10  0.00  0.00  0.88  0.00  0.00  0.01  0.28  0.00
  C13                     1.00   0.38  0.00  0.00  0.00  0.00  0.00  0.62  0.00  0.00
  C14                     1.00   0.10  0.00  0.00  0.90  0.00  0.00  0.00  0.90  0.00
  C15                     1.00   0.10  0.00  0.00  0.90  0.00  0.00  0.00  0.00  0.00
  C16                     1.00   0.10  0.00  0.00  0.00  0.00  0.00  0.90  0.00  0.00
  C18                     1.00   1.00  0.00  0.00  0.00  0.00  0.00  0.00  0.00  0.00
  C19                     1.00   0.11  0.00  0.00  0.00  0.00  0.00  0.88  0.00  0.00
  C20                     1.00   0.11  0.00  0.00  0.80  0.00  0.00  0.09  0.74  0.00
  C21                     1.00   0.11  0.00  0.00  0.89  0.00  0.00  0.00  0.89  0.00
  C22                     1.00   0.09  0.02  0.00  0.89  0.00  0.00  0.00  0.88  0.00
  C23                     1.00   0.09  0.00  0.00  0.89  0.00  0.00  0.02  0.89  0.00
  C24                     1.00   0.15  0.00  0.00  0.00  0.00  0.00  0.85  0.00  0.00
  C25                     1.00   0.11  0.00  0.00  0.88  0.00  0.00  0.01  0.85  0.00
  C26                     1.00   0.11  0.00  0.00  0.89  0.00  0.00  0.00  0.16  0.00
  C27                     1.00   0.11  0.00  0.00  0.00  0.00  0.00  0.89  0.00  0.00
  C28                     1.00   0.12  0.00  0.00  0.00  0.00  0.00  0.88  0.00  0.00
  C29                     1.00   0.14  0.00  0.00  0.79  0.00  0.00  0.07  0.79  0.00
  C30                     1.00   0.12  0.09  0.00  0.78  0.00  0.00  0.01  0.78  0.00
  C31                     1.00   0.12  0.00  0.00  0.87  0.00  0.00  0.01  0.87  0.00
  C32                     1.00   0.13  0.00  0.00  0.00  0.00  0.00  0.87  0.00  0.00
  C33                     1.00   0.11  0.00  0.00  0.87  0.00  0.00  0.01  0.87  0.00
  C34                     1.00   0.13  0.00  0.00  0.87  0.00  0.00  0.00  0.87  0.00
  C35                     1.00   0.13  0.00  0.00  0.00  0.00  0.00  0.87  0.00  0.00
  C36                     1.00   0.11  0.01  0.00  0.88  0.00  0.00  0.00  0.88  0.00
  C17                     1.00   0.03  0.07  0.00  0.90  0.00  0.00  0.00  0.89  0.00
  
  
  *************************
  Conduit Surcharge Summary
  *************************
  
  ----------------------------------------------------------------------------
                                                           Hours        Hours 
                         --------- Hours Full --------   Above Full   Capacity
  Conduit                Both Ends  Upstream  Dnstream   Normal Flow   Limited
  ----------------------------------------------------------------------------
  C3                          0.01      0.01      0.01      0.01         0.01
  C4                          0.01      0.01      0.01      0.01         0.01
  C5                          0.06      0.07      1.67      0.01         0.01
  C6                          0.01      0.01      0.01      0.01         0.01
  C9                          0.01      0.01      3.26      0.01         0.01
  C10                         0.01      0.72      0.01      0.01         0.01
  C11                         0.01      0.01     22.97      0.01         0.01
  C12                         0.01      0.01     31.77      0.01         0.01
  C13                         0.01      9.52      0.01      0.01         0.01
  C14                         0.01      0.01      0.01      0.01         0.01
  C15                         0.01      0.01     32.41      0.01         0.01
  C16                         0.01      0.01      0.01      0.01         0.01
  C19                         0.01      0.01      0.01      0.01         0.01
  C21                         0.01      0.01      0.20      0.01         0.01
  C22                         0.01      0.23      0.13      0.01         0.01
  C23                         0.01      0.01     31.43      0.01         0.01
  C25                         0.01      0.01      0.01      0.01         0.01
  C26                         0.01      0.04      0.41      0.01         0.01
  C27                         0.01      5.78      0.01      0.68         0.01
  C28                         0.01      0.08      0.01      0.01         0.01
  C33                         0.01      0.01      0.02      0.01         0.01
  C34                         0.01      0.01      0.01      0.01         0.01
  C35                         0.01      0.01      0.01      0.01         0.01
  C36                         0.01      0.01      8.90      0.01         0.01
  

  Analysis begun on:  Tue Jun 23 20:33:56 2026
  Analysis ended on:  Tue Jun 23 20:34:17 2026
  Total elapsed time: 00:00:21