
  EPA STORM WATER MANAGEMENT MODEL - VERSION 5.2 (Build 5.2.4)
  ------------------------------------------------------------

  WARNING 02: maximum depth increased for Node 4172
  
  ****************
  Analysis Options
  ****************
  Flow Units ............... LPS
  Process Models:
    Rainfall/Runoff ........ YES
    RDII ................... NO
    Snowmelt ............... NO
    Groundwater ............ NO
    Flow Routing ........... YES
    Ponding Allowed ........ YES
    Water Quality .......... NO
  Infiltration Method ...... HORTON
  Flow Routing Method ...... DYNWAVE
  Surcharge Method ......... EXTRAN
  Starting Date ............ 01/01/2002 00:00:00
  Ending Date .............. 01/03/2002 00:00:00
  Antecedent Dry Days ...... 5.0
  Report Time Step ......... 00:05:00
  Wet Time Step ............ 00:05:00
  Dry Time Step ............ 01:00:00
  Routing Time Step ........ 30.00 sec
  Variable Time Step ....... YES
  Maximum Trials ........... 8
  Number of Threads ........ 1
  Head Tolerance ........... 0.001500 m
  
  
  **************************        Volume         Depth
  Runoff Quantity Continuity     hectare-m            mm
  **************************     ---------       -------
  Total Precipitation ......        34.321        83.420
  Evaporation Loss .........         0.797         1.936
  Infiltration Loss ........         0.318         0.774
  Surface Runoff ...........        30.707        74.635
  Final Storage ............         2.501         6.079
  Continuity Error (%) .....        -0.005
  
  
  **************************        Volume        Volume
  Flow Routing Continuity        hectare-m      10^6 ltr
  **************************     ---------     ---------
  Dry Weather Inflow .......         0.000         0.000
  Wet Weather Inflow .......        30.706       307.064
  Groundwater Inflow .......         0.000         0.000
  RDII Inflow ..............         0.000         0.000
  External Inflow ..........         0.000         0.000
  External Outflow .........        30.767       307.678
  Flooding Loss ............         0.000         0.000
  Evaporation Loss .........         0.000         0.000
  Exfiltration Loss ........         0.000         0.000
  Initial Stored Volume ....         0.000         0.000
  Final Stored Volume ......         0.005         0.054
  Continuity Error (%) .....        -0.217
  
  
  *************************
  Highest Continuity Errors
  *************************
  Node 232243 (-1.90%)
  
  
  ***************************
  Time-Step Critical Elements
  ***************************
  Link 16630 (60.26%)
  Link 15225 (38.46%)
  
  
  ********************************
  Highest Flow Instability Indexes
  ********************************
  Link 4234 (3)
  Link P-STMPIP-000037 (3)
  Link 10850 (2)
  Link 11051 (2)
  Link 4479 (1)
  
  
  *********************************
  Most Frequent Nonconverging Nodes
  *********************************
  Node OFALL-10 (2.44%)
  Node OUT-DP-2 (2.44%)
  Node OUT-L10-1 (2.44%)
  Node OUT-L3-1 (2.44%)
  Node OUT-L3-C (2.44%)
  
  
  *************************
  Routing Time Step Summary
  *************************
  Minimum Time Step           :     0.50 sec
  Average Time Step           :     1.30 sec
  Maximum Time Step           :    30.00 sec
  % of Time in Steady State   :     0.00
  Average Iterations per Step :     2.20
  % of Steps Not Converging   :     2.44
  Time Step Frequencies       :
     30.000 - 13.228 sec      :     0.07 %
     13.228 -  5.833 sec      :     0.11 %
      5.833 -  2.572 sec      :     1.68 %
      2.572 -  1.134 sec      :    39.14 %
      1.134 -  0.500 sec      :    59.00 %
  
  
  ***************************
  Subcatchment Runoff Summary
  ***************************
  
  ------------------------------------------------------------------------------------------------------------------------------
                            Total      Total      Total      Total     Imperv       Perv      Total       Total     Peak  Runoff
                           Precip      Runon       Evap      Infil     Runoff     Runoff     Runoff      Runoff   Runoff   Coeff
  Subcatchment                 mm         mm         mm         mm         mm         mm         mm    10^6 ltr      LPS
  ------------------------------------------------------------------------------------------------------------------------------
  DP-2-A                    83.42       0.00       1.93       0.78      48.37      47.17      75.08       10.61   209.66   0.900
  L10-1-A                   83.42       0.00       1.90       0.67      53.01      46.18      76.47        4.73   110.93   0.917
  L10-1-B                   83.42       0.00       1.89       0.87      45.02      49.89      75.61        2.14    49.18   0.906
  L3-1-A                    83.42       0.00       1.94       0.64      53.96      40.10      76.07        6.23   133.50   0.912
  L3-1-B                    83.42       0.00       1.92       0.50      59.56      37.47      77.18        3.38    81.57   0.925
  L3-1-C                    83.42       0.00       1.95       0.56      57.00      37.60      76.50        6.67   146.60   0.917
  L3-1-D                    83.42       0.00       1.95       0.46      60.91      36.53      77.13        5.60   129.70   0.925
  L3A-A                     83.42       0.00       1.91       1.05      37.85      43.76      73.70        7.04   134.02   0.884
  L3A-B                     83.42       0.00       1.91       0.99      40.18      41.92      74.07        7.94   154.49   0.888
  L3A-C                     83.42       0.00       1.92       0.43      62.33      24.14      77.62        6.18   161.83   0.931
  L3A-D                     83.42       0.00       1.90       1.10      35.83      45.44      74.01        5.41   109.03   0.887
  L3C-A                     83.42       0.00       1.95       1.05      37.60      41.24      69.50       28.09   409.80   0.833
  L4-1-A                    83.42       0.00       1.96       0.64      53.82      39.87      75.47       16.97   330.51   0.905
  L4-1-B                    83.42       0.00       1.90       0.65      53.88      36.76      76.67        4.36   107.76   0.919
  L4-1-C                    83.42       0.00       1.93       0.72      50.94      40.51      75.73        8.41   178.68   0.908
  L4-1A-A                   83.42       0.00       1.93       0.62      54.74      42.07      76.34       11.06   244.95   0.915
  L4-1A-B                   83.42       0.00       1.93       0.56      57.10      39.66      76.71        8.37   190.82   0.920
  L4-A                      83.42       0.00       1.96       0.68      52.36      32.58      75.19       19.26   379.87   0.901
  L6-A                      83.42       0.00       1.93       0.91      43.25      47.52      73.90        9.66   174.36   0.886
  L6-A-A                    83.42       0.00       1.95       0.93      42.40      34.92      72.11       21.05   358.53   0.864
  L6-B                      83.42       0.00       1.94       0.78      48.56      42.57      74.94        7.90   154.03   0.898
  L6-C                      83.42       0.00       1.93       0.72      50.91      46.62      75.71        5.09   107.35   0.908
  L6-D                      83.42       0.00       1.92       0.80      47.68      44.80      75.27        7.14   147.27   0.902
  L6-E                      83.42       0.00       1.96       0.58      56.11      40.51      76.25        7.67   163.40   0.914
  L8-A                      83.42       0.00       1.94       0.81      47.28      43.87      74.80       10.04   194.96   0.897
  L8-A-A                    83.42       0.00       1.95       0.68      52.47      41.40      75.56        8.58   172.87   0.906
  L8-A-B                    83.42       0.00       1.94       0.72      50.96      24.76      75.72        6.55   146.22   0.908
  L8-A-C                    83.42       0.00       1.92       0.91      43.15      49.74      74.53        7.82   153.19   0.893
  L8-A-D                    83.42       0.00       1.94       0.58      56.36      41.68      76.50        5.48   121.71   0.917
  L8-A-E                    83.42       0.00       1.90       0.82      47.12      48.04      75.71        3.31    74.36   0.908
  L8-A-F                    83.42       0.00       1.88       0.66      53.30      41.33      76.86        1.64    43.93   0.921
  L8-B                      83.42       0.00       1.93       0.68      52.26      42.41      75.96        5.50   118.64   0.911
  LC1-A-A                   83.42       0.00       1.91       0.74      50.08      42.58      75.96        6.67   149.17   0.911
  LC1-A-B                   83.42       0.00       1.93       1.11      35.21      48.07      71.55       10.24   163.38   0.858
  LC1-A-C                   83.42       0.00       1.89       0.83      46.58      44.70      75.75        4.62   106.27   0.908
  LC1-A-D                   83.42       0.00       1.84       0.50      59.88      37.89      77.80        0.30     8.89   0.933
  LC1-A-E                   83.42       0.00       1.86       0.50      59.81      37.82      77.70        0.68    19.76   0.931
  LC1-A-F                   83.42       0.00       1.94       0.28      68.18      32.71      78.17        4.89   125.94   0.937
  LC1-A-G                   83.42       0.00       1.93       0.66      53.03      35.64      76.07        9.80   214.03   0.912
  
  
  ******************
  Node Depth Summary
  ******************
  
  ---------------------------------------------------------------------------------
                                 Average  Maximum  Maximum  Time of Max    Reported
                                   Depth    Depth      HGL   Occurrence   Max Depth
  Node                 Type       Meters   Meters   Meters  days hr:min      Meters
  ---------------------------------------------------------------------------------
  1416                 JUNCTION     0.09     0.16    60.71     0  09:31        0.16
  1429                 JUNCTION     0.15     0.26    69.19     0  11:30        0.26
  22717                JUNCTION     0.13     0.23    16.03     0  09:30        0.23
  22755                JUNCTION     4.73     9.55    25.02     0  17:56        9.55
  22756                JUNCTION     0.38     0.79    15.19     0  17:56        0.79
  232234               JUNCTION     0.15     0.28    43.24     0  09:30        0.28
  232239               JUNCTION     0.22     1.13    42.97     0  11:47        1.09
  232243               JUNCTION     0.46     2.40    42.87     0  11:29        2.40
  232250               JUNCTION     0.90     4.24    42.85     0  11:30        4.24
  232255               JUNCTION     1.28     5.08    40.63     0  11:56        5.08
  232264               JUNCTION     0.14     0.26    43.49     0  10:58        0.26
  232299               JUNCTION     0.13     0.24    18.04     0  09:30        0.24
  232301               JUNCTION     0.13     0.24    16.99     0  09:30        0.24
  232303               JUNCTION     0.13     0.23    15.99     0  09:30        0.23
  234554               JUNCTION     0.18     0.30    69.13     0  11:30        0.30
  234557               JUNCTION     0.15     0.27    68.53     0  09:30        0.27
  234558               JUNCTION     0.15     0.27    68.24     0  09:30        0.27
  234559               JUNCTION     0.15     0.27    67.84     0  09:30        0.27
  234560               JUNCTION     0.16     0.29    67.41     0  09:31        0.29
  234561               JUNCTION     0.19     0.34    67.26     0  09:31        0.34
  234562               JUNCTION     0.09     0.16    65.07     0  09:31        0.16
  234876               JUNCTION     0.11     0.18    73.21     0  11:30        0.18
  24077                JUNCTION     0.15     0.27    68.60     0  09:30        0.27
  24078                JUNCTION     0.20     0.36    67.30     0  09:31        0.36
  24079                JUNCTION     0.12     0.21    66.63     0  09:31        0.21
  24088                JUNCTION     0.13     0.24    18.14     0  09:30        0.24
  24089                JUNCTION     0.13     0.23    16.32     0  09:30        0.23
  24566                JUNCTION     0.28     0.46    17.56     0  11:30        0.46
  2790                 JUNCTION     0.14     0.30    36.44     0  10:31        0.30
  2791                 JUNCTION     0.16     0.31    37.78     0  10:59        0.31
  2792                 JUNCTION     0.16     0.30    40.49     0  10:59        0.30
  3822                 JUNCTION     0.10     0.17    62.69     0  09:31        0.17
  3826                 JUNCTION     1.74     5.92    49.33     0  10:58        5.92
  4169                 JUNCTION     0.10     0.18    57.13     0  09:31        0.18
  4170                 JUNCTION     0.09     0.15    55.00     0  09:32        0.15
  4171                 JUNCTION     0.10     0.18    50.23     0  09:32        0.18
  4172                 JUNCTION     0.15     0.28    47.25     0  09:30        0.28
  4182                 JUNCTION     0.08     0.13    74.92     0  11:30        0.13
  4587                 JUNCTION     0.10     0.19    14.81     0  09:30        0.19
  4589                 JUNCTION     0.20     0.32    18.80     0  09:30        0.32
  4723                 JUNCTION     0.15     0.28    44.63     0  09:30        0.28
  4724                 JUNCTION     0.16     0.33    42.86     0  11:32        0.33
  4725                 JUNCTION     0.41     2.19    42.89     0  11:29        2.18
  4726                 JUNCTION     0.97     4.54    42.84     0  11:30        4.54
  4744                 JUNCTION     1.35     5.38    41.00     0  11:50        5.38
  4745                 JUNCTION     1.12     4.58    39.77     0  12:04        4.58
  4746                 JUNCTION     0.32     1.75    34.10     0  08:47        1.23
  4747                 JUNCTION     0.61     1.72    30.49     0  12:23        1.72
  JCT-10               JUNCTION     0.24     0.93    28.98     0  12:24        0.93
  JCT-20               JUNCTION     1.01     4.08    38.90     0  12:08        4.08
  JCT-24               JUNCTION     0.14     0.27    41.96     0  10:59        0.27
  JCT-26               JUNCTION     0.17     0.35    39.09     0  10:59        0.35
  JCT-28               JUNCTION     0.17     0.32    37.12     0  11:06        0.32
  JCT-48               JUNCTION     0.19     0.35    10.35     0  08:45        0.35
  P-STMH-000002        JUNCTION     0.84     3.56    38.55     0  11:37        3.56
  P-STMH-000003        JUNCTION     0.94     3.73    38.18     0  11:34        3.73
  P-STMH-000004        JUNCTION     1.07     3.84    37.94     0  11:30        3.84
  P-STMH-000008        JUNCTION     0.09     0.18    41.85     0  09:30        0.18
  P-STMH-000009        JUNCTION     0.24     1.09    34.42     0  08:27        1.03
  P-STMH-000013        JUNCTION     5.18    12.45    33.93     0  14:58       12.45
  P-STMH-000014        JUNCTION     5.89    12.62    29.82     0  17:39       12.62
  P-STMH-000015        JUNCTION     5.71    11.86    28.31     0  17:30       11.86
  P-STMH-000016        JUNCTION     5.52    11.23    27.19     0  17:32       11.23
  P-STMH-000017        JUNCTION     1.31     4.99    99.07     0  16:36        4.99
  P-STMH-000018        JUNCTION     5.16    13.46    97.67     0  16:04       13.46
  P-STMH-000019        JUNCTION     3.41     9.80    91.05     0  15:01        9.80
  P-STMH-000020        JUNCTION     1.64     5.47    84.43     0  14:50        5.47
  P-STMH-000021        JUNCTION     3.86     9.59    84.42     0  14:51        9.59
  P-STMH-000022        JUNCTION     1.89     4.69    77.93     0  14:50        4.69
  P-STMH-000025        JUNCTION     0.36     1.76    77.86     0  12:32        1.76
  P-STMH-000028        JUNCTION     0.09     0.19    79.93     0  09:30        0.19
  P-STMH-000030        JUNCTION     0.39     2.00    76.49     0  12:49        2.00
  P-STMH-000031        JUNCTION     1.09     4.42    74.72     0  13:27        4.42
  P-STMH-000032        JUNCTION     1.75     6.02    72.77     0  14:07        6.02
  P-STMH-000033        JUNCTION     1.40     5.11    72.18     0  14:26        5.11
  P-STMH-000034        JUNCTION     1.35     4.97    72.22     0  14:27        4.97
  P-STMH-000035        JUNCTION     0.36     1.81    73.06     0  14:07        1.81
  P-STMH-000036        JUNCTION     0.00     0.00    74.15     0  00:00        0.00
  P-STMH-000037        JUNCTION     0.00     0.00    78.21     0  00:00        0.00
  P-STMH-000041        JUNCTION     0.14     0.34    56.17     0  09:30        0.34
  P-STMH-000042        JUNCTION     0.10     0.22    54.33     0  09:30        0.22
  P-STMH-000043        JUNCTION     0.14     0.30    55.79     0  09:30        0.30
  P-STMH-000044        JUNCTION     0.21     1.27    74.86     0  13:31        1.27
  P-STMH-000045        JUNCTION     0.21     1.46    59.31     0  09:42        1.46
  P-STMH-000046        JUNCTION     0.05     0.11    59.84     0  08:30        0.11
  P-STMH-000047        JUNCTION     0.08     0.18    52.67     0  09:43        0.18
  P-STMH-000048        JUNCTION     0.14     0.25    49.19     0  09:30        0.25
  P-STMH-000050        JUNCTION     1.63     4.36    59.61     0  13:45        4.36
  P-STMH-000051        JUNCTION     2.01     6.27    65.94     0  13:04        6.27
  P-STMH-000052        JUNCTION     0.20     0.36    54.49     0  11:31        0.36
  P-STMH-000053        JUNCTION     0.20     0.36    51.95     0  11:32        0.36
  P-STMH-000057        JUNCTION     0.34     2.12    51.04     0  11:13        2.12
  P-STMH-000060        JUNCTION     7.01    16.69    69.96     0  16:31       16.69
  P-STMH-000064        JUNCTION     6.61    17.41    75.66     0  15:05       17.41
  P-STMH-000066        JUNCTION     0.09     0.19    55.46     0  09:30        0.19
  P-STMH-000068        JUNCTION     4.69    10.82    59.77     0  18:05       10.82
  P-STMH-000069        JUNCTION     0.13     0.19    44.44     0  18:05        0.19
  P-STMH-000070        JUNCTION     1.11     4.12    69.75     0  14:19        4.12
  OFALL-10             OUTFALL      0.10     0.21     9.21     0  08:45        0.21
  OUT-DP-2             OUTFALL      0.16     0.30    13.35     0  08:04        0.30
  OUT-L10-1            OUTFALL      0.07     0.15    44.53     0  09:30        0.15
  OUT-L3-1             OUTFALL      0.18     0.25    14.16     0  09:02        0.25
  OUT-L3-C             OUTFALL      0.27     0.42    17.42     0  11:30        0.42
  OUT-L3A              OUTFALL      0.25     0.45    30.03     0  08:25        0.45
  OUT-L4               OUTFALL      0.10     0.19    14.35     0  09:30        0.19
  OUT-L4-1             OUTFALL      0.18     0.38    28.68     0  08:17        0.38
  OUT-L4-1A            OUTFALL      0.13     0.19    40.46     0  18:05        0.19
  OUT-L6               OUTFALL      0.25     0.38    71.58     0  06:44        0.38
  OUT-L6-A             OUTFALL      0.16     0.29    63.29     0  09:30        0.29
  OUT-LB-8             OUTFALL      0.20     0.36    41.42     0  11:32        0.36
  OUT-LC1-A            OUTFALL      0.18     0.38    25.53     0  08:20        0.38
  POND-DP-2            STORAGE      0.28     1.20    14.91     0  09:30        1.20
  POND-L10-1           STORAGE      0.07     0.15    52.17     0  09:30        0.15
  POND-L3-1            STORAGE      5.35    10.88    26.75     0  17:35       10.88
  POND-L3-C            STORAGE      0.29     0.47    17.67     0  11:30        0.47
  POND-L3A             STORAGE      0.64     2.42    32.92     0  13:08        2.34
  POND-L4              STORAGE      0.13     0.25    18.95     0  09:30        0.25
  POND-L4-1            STORAGE      0.61     2.52    34.68     0  10:30        2.52
  POND-L4-1A           STORAGE      7.01    16.65    69.68     0  16:04       16.64
  POND-L6              STORAGE      3.95     9.33    82.78     0  14:29        9.33
  POND-L6-A            STORAGE      0.16     0.29    66.54     0  09:30        0.29
  POND-L8              STORAGE      0.40     0.89    52.79     0  11:33        0.89
  POND-L8-A            STORAGE      1.76     5.86    72.01     0  14:42        5.86
  POND-LC1-A           STORAGE      1.72     6.84    42.82     0  11:36        6.84
  
  
  *******************
  Node Inflow Summary
  *******************
  
  -------------------------------------------------------------------------------------------------
                                  Maximum  Maximum                  Lateral       Total        Flow
                                  Lateral    Total  Time of Max      Inflow      Inflow     Balance
                                   Inflow   Inflow   Occurrence      Volume      Volume       Error
  Node                 Type           LPS      LPS  days hr:min    10^6 ltr    10^6 ltr     Percent
  -------------------------------------------------------------------------------------------------
  1416                 JUNCTION      0.00   280.61     0  09:31           0        15.1       0.001
  1429                 JUNCTION      0.00   163.36     0  11:30           0        10.2       0.005
  22717                JUNCTION      0.00   379.86     0  09:30           0        19.3       0.000
  22755                JUNCTION      0.00   252.84     0  14:37           0        21.9       0.003
  22756                JUNCTION      0.00   247.12     0  17:56           0        21.9       0.000
  232234               JUNCTION      0.00   555.13     0  09:30           0        27.4       0.002
  232239               JUNCTION      0.00   555.13     0  09:31           0        27.4      -0.008
  232243               JUNCTION      0.00  1562.55     0  08:41           0          28      -1.866
  232250               JUNCTION      0.00   899.93     0  07:47           0          28      -0.008
  232255               JUNCTION      0.00   691.15     0  10:36           0        37.7       0.000
  232264               JUNCTION      0.00   405.79     0  10:58           0        21.3       0.001
  232299               JUNCTION      0.00   379.88     0  09:30           0        19.3       0.001
  232301               JUNCTION      0.00   379.86     0  09:30           0        19.3       0.001
  232303               JUNCTION      0.00   379.87     0  09:30           0        19.3       0.001
  234554               JUNCTION      0.00   163.33     0  11:30           0        10.2       0.005
  234557               JUNCTION      0.00   280.61     0  09:30           0        15.1       0.001
  234558               JUNCTION      0.00   280.62     0  09:30           0        15.1       0.002
  234559               JUNCTION      0.00   280.62     0  09:30           0        15.1       0.002
  234560               JUNCTION      0.00   280.61     0  09:30           0        15.1       0.002
  234561               JUNCTION      0.00   280.61     0  09:31           0        15.1       0.001
  234562               JUNCTION      0.00   280.61     0  09:31           0        15.1       0.001
  234876               JUNCTION      0.00   163.38     0  11:30           0        10.2       0.004
  24077                JUNCTION    125.94   280.62     0  09:30        4.89        15.1       0.002
  24078                JUNCTION      0.00   280.61     0  09:31           0        15.1       0.001
  24079                JUNCTION      0.00   280.61     0  09:31           0        15.1       0.001
  24088                JUNCTION      0.00   379.88     0  09:30           0        19.3       0.000
  24089                JUNCTION      0.00   379.85     0  09:30           0        19.3       0.001
  24566                JUNCTION      0.00   409.79     0  11:30           0        28.1       0.002
  2790                 JUNCTION      0.00   405.79     0  10:59           0        21.3       0.002
  2791                 JUNCTION      0.00   405.79     0  10:59           0        21.3       0.001
  2792                 JUNCTION      0.00   405.79     0  10:59           0        21.3       0.001
  3822                 JUNCTION      0.00   280.61     0  09:31           0        15.1       0.001
  3826                 JUNCTION    330.51   415.61     0  09:30          17        21.3      -0.057
  4169                 JUNCTION      0.00   280.61     0  09:31           0        15.1       0.002
  4170                 JUNCTION      0.00   280.61     0  09:31           0        15.1       0.002
  4171                 JUNCTION      0.00   280.61     0  09:32           0        15.1       0.001
  4172                 JUNCTION      0.00   555.13     0  09:30           0        27.4       0.002
  4182                 JUNCTION    163.38   163.38     0  11:30        10.2        10.2       0.000
  4587                 JUNCTION      0.00   379.86     0  09:30           0        19.3       0.000
  4589                 JUNCTION      0.00   379.87     0  09:30           0        19.3       0.001
  4723                 JUNCTION      0.00   555.12     0  09:30           0        27.4       0.001
  4724                 JUNCTION      0.00   555.13     0  09:31           0        27.4       0.001
  4725                 JUNCTION      0.00  1105.56     0  08:40           0          28      -0.008
  4726                 JUNCTION      0.00  1286.50     0  07:49           0          28      -0.018
  4744                 JUNCTION      0.00   706.80     0  09:38           0        37.7       0.000
  4745                 JUNCTION      0.00   682.96     0  10:49           0        37.7      -0.000
  4746                 JUNCTION      0.00   673.30     0  12:02           0        37.7       0.001
  4747                 JUNCTION      0.00   673.30     0  12:02           0        37.7       0.001
  JCT-10               JUNCTION      0.00   672.84     0  12:23           0        37.7       0.000
  JCT-20               JUNCTION      0.00   676.53     0  11:12           0        37.7       0.001
  JCT-24               JUNCTION      0.00   405.79     0  10:58           0        21.3       0.001
  JCT-26               JUNCTION      0.00   405.79     0  10:59           0        21.3       0.001
  JCT-28               JUNCTION      0.00   405.79     0  10:59           0        21.3       0.000
  JCT-48               JUNCTION    146.22   146.22     0  08:30        6.55        6.55       0.073
  P-STMH-000002        JUNCTION    154.49   154.49     0  09:30        7.94        7.94       0.108
  P-STMH-000003        JUNCTION      0.00   144.91     0  13:10           0        7.93       0.024
  P-STMH-000004        JUNCTION    109.03   367.16     0  11:49        5.41        20.4      -0.050
  P-STMH-000008        JUNCTION    134.02   134.02     0  09:30        7.04        7.04       0.007
  P-STMH-000009        JUNCTION    161.83   487.72     0  10:30        6.18        26.6       0.002
  P-STMH-000013        JUNCTION    210.47   210.47     0  09:30        8.98        8.98       0.011
  P-STMH-000014        JUNCTION      0.00   130.77     0  11:24           0        8.99      -0.334
  P-STMH-000015        JUNCTION    133.50   201.38     0  11:30        6.23        15.2       0.115
  P-STMH-000016        JUNCTION    146.60   285.17     0  11:30        6.67        21.9       0.014
  P-STMH-000017        JUNCTION    107.35   107.35     0  09:30        5.09        5.09       0.010
  P-STMH-000018        JUNCTION    147.27   253.15     0  09:30        7.14        12.2      -0.557
  P-STMH-000019        JUNCTION    174.36   317.91     0  10:30        9.66          22       0.007
  P-STMH-000020        JUNCTION      0.00    37.57     0  10:08           0       0.541       1.671
  P-STMH-000021        JUNCTION    163.40   414.78     0  11:30        7.67        30.2       0.024
  P-STMH-000022        JUNCTION      0.00   506.79     0  14:29           0        37.5       0.001
  P-STMH-000025        JUNCTION    172.87   172.87     0  09:30        8.58        8.58       0.119
  P-STMH-000028        JUNCTION    121.71   121.71     0  09:30        5.48        5.48       0.003
  P-STMH-000030        JUNCTION      0.00   309.96     0  09:29           0          14       0.141
  P-STMH-000031        JUNCTION      0.00   342.51     0  09:28           0        15.7      -0.038
  P-STMH-000032        JUNCTION     74.36   358.64     0  08:04        3.31          19      -0.027
  P-STMH-000033        JUNCTION      0.00   131.92     0  08:14           0        7.82       0.004
  P-STMH-000034        JUNCTION      0.00   152.61     0  09:30           0        7.82      -0.030
  P-STMH-000035        JUNCTION    153.19   153.19     0  09:30        7.82        7.82       0.001
  P-STMH-000036        JUNCTION      0.00     0.00     0  00:00           0           0       0.000 ltr
  P-STMH-000037        JUNCTION      0.00     0.00     0  00:00           0           0       0.000 ltr
  P-STMH-000041        JUNCTION    110.93   110.93     0  09:30        4.73        4.73       0.001
  P-STMH-000042        JUNCTION     49.18   160.05     0  09:30        2.14        6.88       0.001
  P-STMH-000043        JUNCTION      0.00   110.91     0  09:30           0        4.73       0.003
  P-STMH-000044        JUNCTION     43.93    43.93     0  08:30        1.64        1.64       0.009
  P-STMH-000045        JUNCTION    106.27   134.87     0  08:30        4.62        5.61       0.012
  P-STMH-000046        JUNCTION     28.65    28.65     0  08:30       0.984       0.984      -0.009
  P-STMH-000047        JUNCTION      0.00   125.83     0  09:42           0         5.6       0.013
  P-STMH-000048        JUNCTION    149.17   555.13     0  09:30        6.67        27.4       0.000
  P-STMH-000050        JUNCTION      0.00   574.87     0  12:40           0        36.8       0.002
  P-STMH-000051        JUNCTION    194.96   603.25     0  08:27          10        36.8      -0.027
  P-STMH-000052        JUNCTION    118.64   669.81     0  11:30         5.5        42.3       0.003
  P-STMH-000053        JUNCTION      0.00   669.74     0  11:32           0        42.3       0.002
  P-STMH-000057        JUNCTION    107.76   107.76     0  08:30        4.36        4.36       0.022
  P-STMH-000060        JUNCTION    190.82   318.66     0  09:30        8.37        19.4      -0.164
  P-STMH-000064        JUNCTION    244.95   244.95     0  09:30        11.1        11.1       0.004
  P-STMH-000066        JUNCTION      0.00   110.90     0  09:30           0        4.73       0.001
  P-STMH-000068        JUNCTION      0.00   251.75     0  13:04           0        19.5      -0.063
  P-STMH-000069        JUNCTION      0.00   237.02     0  18:05           0        19.5       0.001
  P-STMH-000070        JUNCTION      0.00   440.32     0  08:27           0        26.8       0.002
  OFALL-10             OUTFALL       0.00   144.29     0  08:45           0        6.55       0.000
  OUT-DP-2             OUTFALL       0.00   209.60     0  09:30           0        10.6       0.000
  OUT-L10-1            OUTFALL       0.00   160.04     0  09:30           0        6.88       0.000
  OUT-L3-1             OUTFALL       0.00   247.12     0  17:56           0        21.9       0.000
  OUT-L3-C             OUTFALL       0.00   409.79     0  11:30           0        28.1       0.000
  OUT-L3A              OUTFALL       0.00   487.72     0  10:30           0        26.6       0.000
  OUT-L4               OUTFALL       0.00   379.86     0  09:30           0        19.3       0.000
  OUT-L4-1             OUTFALL       0.00   573.60     0  10:30           0        29.7       0.000
  OUT-L4-1A            OUTFALL       0.00   237.02     0  18:05           0        19.5       0.000
  OUT-L6               OUTFALL       0.00   505.21     0  14:50           0        37.5       0.000
  OUT-L6-A             OUTFALL       0.00   358.50     0  09:30           0          21       0.000
  OUT-LB-8             OUTFALL       0.00   669.73     0  11:32           0        42.3       0.000
  OUT-LC1-A            OUTFALL       0.00   672.84     0  12:24           0        37.7       0.000
  POND-DP-2            STORAGE     209.66   209.66     0  09:30        10.6        10.6       0.001
  POND-L10-1           STORAGE       0.00   160.04     0  09:30           0        6.88       0.001
  POND-L3-1            STORAGE       0.00   252.85     0  14:36           0        21.9       0.002
  POND-L3-C            STORAGE     409.80   409.80     0  11:30        28.1        28.1       0.001
  POND-L3A             STORAGE       0.00   487.72     0  10:30           0        26.6       0.002
  POND-L4              STORAGE     379.87   379.87     0  09:30        19.3        19.3       0.000
  POND-L4-1            STORAGE     178.68   573.60     0  10:30        8.41        29.7       0.015
  POND-L4-1A           STORAGE       0.00   251.78     0  13:04           0        19.5      -0.001
  POND-L6              STORAGE     154.03   506.79     0  14:29         7.9        37.5       0.005
  POND-L6-A            STORAGE     358.53   358.53     0  09:30          21          21       0.002
  POND-L8              STORAGE       0.00   329.73     0  11:30           0        21.3       0.003
  POND-L8-A            STORAGE       0.00   440.30     0  08:27           0        26.8       0.018
  POND-LC1-A           STORAGE     214.03   706.84     0  09:34         9.8        37.7       0.003
  
  
  **********************
  Node Surcharge Summary
  **********************
  
  Surcharging occurs when water rises above the top of the highest conduit.
  ---------------------------------------------------------------------
                                               Max. Height   Min. Depth
                                   Hours       Above Crown    Below Rim
  Node                 Type      Surcharged         Meters       Meters
  ---------------------------------------------------------------------
  22755                JUNCTION       29.32          9.174        0.000
  22756                JUNCTION       21.75          0.544        1.496
  232239               JUNCTION        0.28          0.078        1.411
  232243               JUNCTION        5.59          1.350        0.000
  232250               JUNCTION        8.03          3.190        0.000
  232255               JUNCTION       12.53          4.630        0.000
  3826                 JUNCTION       20.92          5.623        0.000
  4725                 JUNCTION        4.60          1.015        0.645
  4726                 JUNCTION        8.13          3.491        0.000
  4744                 JUNCTION       12.56          4.923        0.000
  4745                 JUNCTION        9.57          3.938        0.000
  4746                 JUNCTION        7.15          1.305        1.495
  4747                 JUNCTION       14.14          1.266        0.000
  JCT-10               JUNCTION        1.91          0.023        0.317
  JCT-20               JUNCTION        9.84          3.632        0.000
  P-STMH-000002        JUNCTION       11.00          3.114        0.000
  P-STMH-000003        JUNCTION       12.43          3.283        0.000
  P-STMH-000004        JUNCTION        3.15          0.451        0.499
  P-STMH-000009        JUNCTION        4.56          0.642        0.158
  P-STMH-000013        JUNCTION       23.83         12.150        0.000
  P-STMH-000014        JUNCTION       28.03         12.324        0.000
  P-STMH-000015        JUNCTION       28.44         11.415        0.000
  P-STMH-000016        JUNCTION       28.87         10.783        0.000
  P-STMH-000017        JUNCTION       13.09          4.686        0.000
  P-STMH-000018        JUNCTION       20.76         13.156        0.000
  P-STMH-000019        JUNCTION       18.71          9.422        0.000
  P-STMH-000020        JUNCTION       16.24          5.167        0.000
  P-STMH-000021        JUNCTION       20.89          9.144        0.000
  P-STMH-000022        JUNCTION       20.70          4.314        0.000
  P-STMH-000025        JUNCTION        5.95          1.384        0.000
  P-STMH-000030        JUNCTION        6.57          1.625        0.000
  P-STMH-000031        JUNCTION       11.00          4.049        0.000
  P-STMH-000032        JUNCTION       13.44          5.568        0.000
  P-STMH-000033        JUNCTION       12.93          4.662        0.000
  P-STMH-000034        JUNCTION       12.68          4.519        0.000
  P-STMH-000035        JUNCTION        7.63          1.508        0.000
  P-STMH-000044        JUNCTION        5.72          0.971        0.000
  P-STMH-000045        JUNCTION        2.76          1.157        0.000
  P-STMH-000050        JUNCTION       17.31          3.910        0.000
  P-STMH-000051        JUNCTION       13.60          5.824        0.000
  P-STMH-000057        JUNCTION        5.26          1.823        0.000
  P-STMH-000060        JUNCTION       23.89         16.245        0.000
  P-STMH-000064        JUNCTION       21.99         17.107        0.000
  P-STMH-000068        JUNCTION       24.88         10.519        0.000
  P-STMH-000070        JUNCTION       11.71          3.670        0.000
  POND-DP-2            STORAGE         7.60          0.896        0.804
  POND-L3-1            STORAGE        28.95         10.431        0.000
  POND-L3A             STORAGE        11.05          1.974        0.000
  POND-L4-1            STORAGE         5.86          1.947        0.000
  POND-L4-1A           STORAGE        24.04         16.195        0.000
  POND-L6              STORAGE        22.41          8.880        0.000
  POND-L8              STORAGE        13.61          0.440        1.110
  POND-L8-A            STORAGE        14.49          5.407        0.000
  POND-LC1-A           STORAGE         9.72          5.671        0.000
  
  
  *********************
  Node Flooding Summary
  *********************
  
  Flooding refers to all water that overflows a node, whether it ponds or not.
  --------------------------------------------------------------------------
                                                             Total   Maximum
                                 Maximum   Time of Max       Flood    Ponded
                        Hours       Rate    Occurrence      Volume     Depth
  Node                 Flooded       LPS   days hr:min    10^6 ltr    Meters
  --------------------------------------------------------------------------
  22755                  26.28     37.94      0  08:47       0.798     7.289
  232243                  1.64    504.69      0  08:43       0.031     0.105
  232250                  7.77    213.25      0  08:40       0.418     2.215
  232255                  5.64     19.44      0  09:26       0.109     1.067
  3826                   14.49     82.79      0  08:22       0.555     4.673
  4726                    8.03    739.07      0  07:49       0.335     2.501
  4744                    6.75     22.15      0  09:01       0.127     1.233
  4745                    6.93     19.34      0  08:48       0.120     1.168
  4747                    8.07     32.18      0  15:57       0.038     0.326
  JCT-20                  3.13      7.84      0  10:41       0.029     0.268
  P-STMH-000002          10.11     39.76      0  17:38       0.272     2.314
  P-STMH-000003          10.68     53.58      0  18:05       0.306     2.483
  P-STMH-000013          23.76     94.67      0  08:30       1.328    11.200
  P-STMH-000014          27.49     65.18      0  09:27       1.444    11.374
  P-STMH-000015          28.27     66.85      0  08:30       1.433    10.615
  P-STMH-000016          28.58     75.25      0  05:40       1.343    10.193
  P-STMH-000017          13.06     33.94      0  11:30       0.445     3.736
  P-STMH-000018          20.50    116.14      0  09:28       1.701    12.206
  P-STMH-000019          18.69     82.85      0  09:30       1.145     8.547
  P-STMH-000020          16.07     37.57      0  10:08       0.515     4.217
  P-STMH-000021          20.79    120.22      0  08:34       1.280     8.344
  P-STMH-000022          19.31     33.06      0  08:22       0.378     3.439
  P-STMH-000025           5.47     25.68      0  14:43       0.063     0.509
  P-STMH-000030           5.74     52.22      0  15:24       0.108     0.750
  P-STMH-000031          10.67     64.79      0  09:28       0.429     3.174
  P-STMH-000032          12.89     74.72      0  08:04       0.540     4.768
  P-STMH-000033          12.08     38.93      0  09:29       0.428     3.862
  P-STMH-000034          11.80     37.62      0  09:26       0.394     3.719
  P-STMH-000035           5.64     11.31      0  11:30       0.065     0.558
  P-STMH-000044           1.73      1.49      0  10:23       0.002     0.021
  P-STMH-000045           2.75     11.54      0  08:13       0.031     0.207
  P-STMH-000050          14.73     59.88      0  07:26       0.404     3.110
  P-STMH-000051          13.57    105.08      0  08:24       0.661     5.024
  P-STMH-000057           5.07     18.47      0  09:30       0.099     0.873
  P-STMH-000060          23.59    103.28      0  08:30       1.830    15.445
  P-STMH-000064          21.98    118.51      0  08:30       1.854    16.157
  P-STMH-000068          24.83     51.27      0  09:52       1.243     9.569
  P-STMH-000070           9.35     26.55      0  10:17       0.225     1.800
  
  
  **********************
  Storage Volume Summary
  **********************
  
  ------------------------------------------------------------------------------------------------
                         Average    Avg   Evap  Exfil     Maximum    Max    Time of Max    Maximum
                          Volume   Pcnt   Pcnt   Pcnt      Volume   Pcnt     Occurrence    Outflow
  Storage Unit           1000 mł   Full   Loss   Loss     1000 mł   Full    days hr:min        LPS
  ------------------------------------------------------------------------------------------------
  POND-DP-2                0.000    0.0    0.0    0.0       0.000    0.0       0  00:00     209.60
  POND-L10-1               0.000    0.0    0.0    0.0       0.000    0.0       0  00:00     160.04
  POND-L3-1                0.000    0.0    0.0    0.0       0.000    0.0       0  00:00     252.84
  POND-L3-C                0.000    0.0    0.0    0.0       0.000    0.0       0  00:00     409.79
  POND-L3A                 0.000    0.0    0.0    0.0       0.000    0.0       0  00:00     487.72
  POND-L4                  0.000    0.0    0.0    0.0       0.000    0.0       0  00:00     379.87
  POND-L4-1                0.000    0.0    0.0    0.0       0.000    0.0       0  00:00     573.60
  POND-L4-1A               0.000    0.0    0.0    0.0       0.000    0.0       0  00:00     251.75
  POND-L6                  0.000    0.0    0.0    0.0       0.000    0.0       0  00:00     506.79
  POND-L6-A                0.000    0.0    0.0    0.0       0.000    0.0       0  00:00     358.50
  POND-L8                  0.000    0.0    0.0    0.0       0.000    0.0       0  00:00     329.70
  POND-L8-A                0.000    0.0    0.0    0.0       0.000    0.0       0  00:00     440.32
  POND-LC1-A               0.000    0.0    0.0    0.0       0.000    0.0       0  00:00     706.80
  
  
  ***********************
  Outfall Loading Summary
  ***********************
  
  -----------------------------------------------------------
                         Flow       Avg       Max       Total
                         Freq      Flow      Flow      Volume
  Outfall Node           Pcnt       LPS       LPS    10^6 ltr
  -----------------------------------------------------------
  OFALL-10              99.84     50.28    144.29       6.549
  OUT-DP-2              99.93     80.30    209.60      10.611
  OUT-L10-1             99.90     53.15    160.04       6.875
  OUT-L3-1              99.78    155.05    247.12      21.887
  OUT-L3-C              99.93    202.30    409.79      28.083
  OUT-L3A               99.92    201.61    487.72      26.567
  OUT-L4                99.87    145.70    379.86      19.255
  OUT-L4-1              99.46    226.65    573.60      29.743
  OUT-L4-1A             99.85    136.64    237.02      19.467
  OUT-L6                99.90    272.57    505.21      37.507
  OUT-L6-A              99.94    155.35    358.50      21.044
  OUT-LB-8              99.90    317.37    669.73      42.342
  OUT-LC1-A             99.89    286.10    672.84      37.745
  -----------------------------------------------------------
  System                99.85   2283.08   4848.16     307.676
  
  
  ********************
  Link Flow Summary
  ********************
  
  -----------------------------------------------------------------------------
                                 Maximum  Time of Max   Maximum    Max/    Max/
                                  |Flow|   Occurrence   |Veloc|    Full    Full
  Link                 Type          LPS  days hr:min     m/sec    Flow   Depth
  -----------------------------------------------------------------------------
  10847                CONDUIT    673.30     0  12:02      4.23    1.47    1.00
  10848                CONDUIT    676.53     0  11:12      4.25    1.53    1.00
  10849                CONDUIT    682.96     0  10:49      4.29    2.30    1.00
  10850                CONDUIT    691.15     0  10:36      4.35    2.32    1.00
  11004                CONDUIT    163.36     0  11:30      2.11    0.35    0.49
  11007                CONDUIT    280.61     0  09:31      3.82    0.10    0.22
  11008                CONDUIT    280.61     0  09:31      3.91    0.44    0.46
  11009                CONDUIT    163.33     0  11:31      1.58    0.78    0.63
  11010                CONDUIT    163.33     0  11:30      1.57    0.50    0.62
  11037                CONDUIT    405.79     0  10:59      3.82    0.68    0.63
  11038                CONDUIT    405.79     0  10:58      4.11    0.65    0.60
  11039                CONDUIT    405.79     0  10:59      3.27    0.92    0.73
  11040                CONDUIT    405.79     0  10:59      3.33    0.78    0.72
  11041                CONDUIT    405.79     0  10:59      3.71    0.85    0.68
  11042                CONDUIT    405.79     0  10:59      3.41    0.82    0.70
  11050                CONDUIT    702.64     0  14:50      3.01    0.17    1.00
  11051                CONDUIT   1562.55     0  08:41      3.20    0.39    1.00
  11052                CONDUIT   1286.50     0  07:49      3.17    0.32    1.00
  11056                CONDUIT    553.73     0  09:25      2.79    0.17    1.00
  11057                CONDUIT    555.13     0  09:31      2.79    0.17    0.66
  11058                CONDUIT    555.13     0  09:31      3.03    0.15    0.26
  11059                CONDUIT    555.13     0  09:30      3.00    0.16    0.27
  130                  CONDUIT    379.87     0  09:30      2.22    0.15    0.31
  131                  CONDUIT    379.88     0  09:30      3.58    0.49    0.49
  133                  CONDUIT    379.86     0  09:30      3.99    0.09    0.21
  15210                CONDUIT    379.86     0  09:30      2.97    0.14    0.25
  15211                CONDUIT    379.87     0  09:30      2.97    0.14    0.25
  15212                CONDUIT    379.86     0  09:30      2.97    0.14    0.25
  15214                CONDUIT    379.85     0  09:30      2.89    0.15    0.26
  15215                CONDUIT    379.86     0  09:30      2.81    0.15    0.27
  15224                CONDUIT    247.12     0  17:56      5.03    3.03    1.00
  15225                CONDUIT    247.12     0  17:56      5.03    1.45    1.00
  16629                CONDUIT    280.61     0  09:31      1.65    0.33    0.48
  16630                CONDUIT    280.61     0  09:31      1.59    0.67    0.50
  16679                CONDUIT    280.61     0  09:30      2.09    0.34    0.40
  16680                CONDUIT    280.62     0  09:30      2.10    0.34    0.40
  16681                CONDUIT    280.62     0  09:30      2.10    0.33    0.40
  16682                CONDUIT    280.61     0  09:30      1.98    0.34    0.42
  16700                CONDUIT    280.61     0  09:31      1.51    0.80    0.51
  169                  CONDUIT    379.88     0  09:30      2.83    0.15    0.26
  18755                CONDUIT    409.79     0  11:30      1.74    1.01    0.78
  18756                CONDUIT    409.79     0  11:30      1.85    1.04    0.73
  2018                 CONDUIT    280.61     0  09:31      3.77    0.10    0.22
  21                   CONDUIT    673.30     0  12:02      4.23    0.93    1.00
  22                   CONDUIT    672.84     0  12:23      4.23    2.40    1.00
  423                  CONDUIT    280.61     0  09:31      3.91    0.12    0.22
  4234                 CONDUIT    514.56     0  15:39      2.46    0.10    1.00
  427                  CONDUIT    280.61     0  09:32      4.40    0.09    0.20
  428                  CONDUIT    280.61     0  09:32      2.67    0.12    0.29
  428A                 CONDUIT    555.13     0  09:30      4.24    0.24    0.34
  4479                 CONDUIT    706.80     0  09:38      4.44    2.36    1.00
  789                  CONDUIT    280.61     0  09:31      3.67    0.12    0.23
  CDT-13               CONDUIT    144.29     0  08:45      0.79    0.17    0.26
  P-STMPIP-000002      CONDUIT    505.21     0  14:50      4.57    1.76    1.00
  P-STMPIP-000003      CONDUIT    107.42     0  09:42      1.69    0.64    1.00
  P-STMPIP-000004      CONDUIT    158.85     0  20:22      2.25    1.56    1.00
  P-STMPIP-000005      CONDUIT    287.15     0  16:43      2.60    1.02    1.00
  P-STMPIP-000006      CONDUIT     37.57     0  10:08      0.53    0.35    1.00
  P-STMPIP-000008      CONDUIT    188.32     0  09:29      1.80    1.17    1.00
  P-STMPIP-000010      CONDUIT    301.97     0  09:28      3.04    0.83    1.00
  P-STMPIP-000011      CONDUIT     43.85     0  08:30      0.81    0.39    1.00
  P-STMPIP-000012      CONDUIT    294.02     0  08:04      2.66    0.86    1.00
  P-STMPIP-000013      CONDUIT      0.00     0  00:00      0.00    0.00    0.50
  P-STMPIP-000014      CONDUIT    331.30     0  08:27      2.08    1.24    1.00
  P-STMPIP-000017      CONDUIT    110.90     0  09:30      1.81    0.50    0.54
  P-STMPIP-000018      CONDUIT    160.04     0  09:30      2.99    0.59    0.49
  P-STMPIP-000019      CONDUIT    160.04     0  09:30      4.02    0.32    0.39
  P-STMPIP-000020      CONDUIT    148.20     0  13:15      2.10    1.09    1.00
  P-STMPIP-000024      CONDUIT    375.96     0  13:03      2.40    2.24    1.00
  P-STMPIP-000026      CONDUIT    174.96     0  16:50      1.10    1.52    1.00
  P-STMPIP-000027      CONDUIT    130.77     0  11:24      1.85    1.16    1.00
  P-STMPIP-000028      CONDUIT    574.87     0  12:40      3.61    1.20    1.00
  P-STMPIP-000029      CONDUIT    340.05     0  11:31      2.49    0.97    0.80
  P-STMPIP-000030      CONDUIT    669.73     0  11:32      4.87    0.98    0.81
  P-STMPIP-000032      CONDUIT    110.10     0  08:24      1.56    0.71    1.00
  P-STMPIP-000036      CONDUIT    487.72     0  10:30      3.07    0.73    1.00
  P-STMPIP-000037      CONDUIT    251.78     0  13:04      1.63    1.14    1.00
  P-STMPIP-000038      CONDUIT    131.92     0  08:14      1.46    0.51    1.00
  P-STMPIP-000039      CONDUIT     28.60     0  08:30      0.61    0.30    0.69
  P-STMPIP-000040      CONDUIT    125.83     0  09:42      2.18    1.03    0.80
  P-STMPIP-000041      CONDUIT    252.85     0  14:36      1.59    2.25    1.00
  P-STMPIP-000042      CONDUIT    106.16     0  19:27      1.50    1.44    1.00
  P-STMPIP-000043      CONDUIT    144.91     0  13:10      1.04    0.85    1.00
  P-STMPIP-000045      CONDUIT    171.17     0  13:05      1.08    1.02    1.00
  P-STMPIP-000046      CONDUIT    134.05     0  09:30      3.10    0.65    0.79
  P-STMPIP-000052      CONDUIT    121.68     0  09:30      2.11    0.75    0.82
  P-STMPIP-000054      CONDUIT      0.00     0  00:00      0.00    0.00    0.00
  P-STMPIP-000055      CONDUIT    152.61     0  09:30      2.48    0.59    1.00
  P-STMPIP-000057      CONDUIT    125.83     0  09:43      2.62    0.66    0.65
  P-STMPIP-000059      CONDUIT    425.02     0  15:35      2.81    0.81    1.00
  P-STMPIP-000060      CONDUIT    572.85     0  13:19      3.85    2.07    0.90
  P-STMPIP-000065      CONDUIT    110.91     0  09:30      1.11    1.07    0.85
  P-STMPIP-000066      CONDUIT    110.90     0  09:30      1.46    1.08    0.65
  P-STMPIP-000068      CONDUIT    163.04     0  19:37      1.03    0.60    1.00
  P-STMPIP-000069      CONDUIT    329.73     0  11:30      2.19    0.90    0.90
  P-STMPIP-000070      CONDUIT    329.70     0  11:33      2.18    1.62    0.90
  P-STMPIP-000071      CONDUIT    506.79     0  14:29      4.59    4.81    1.00
  P-STMPIP-000072      CONDUIT    398.43     0  15:29      2.51    1.11    1.00
  P-STMPIP-000073      CONDUIT    358.50     0  09:30      3.35    0.73    0.64
  P-STMPIP-000074      CONDUIT    672.84     0  12:24      6.45    1.09    1.00
  P-STMPIP-000075      CONDUIT    405.79     0  10:58      5.88    5.63    0.94
  P-STMPIP-000076      CONDUIT    251.75     0  13:04      3.56    1.62    1.00
  P-STMPIP-000077      CONDUIT    237.02     0  18:05      3.82    1.69    0.82
  P-STMPIP-000078      CONDUIT    237.02     0  18:05      4.98    0.73    0.64
  P-STMPIP-000079      CONDUIT    405.88     0  11:00      2.29    0.49    0.78
  P-STMPIP-000080      CONDUIT    573.60     0  10:30      5.19    1.22    1.00
  P-STMPIP-000081      CONDUIT    209.60     0  09:30      2.97    1.54    1.00
  P-STMPIP-000082      CONDUIT    252.84     0  14:37      2.29    2.12    1.00
  P-STMPIP-000083      CONDUIT    487.72     0  10:30      3.07    1.75    1.00
  P-STMPIP-000084      CONDUIT    163.38     0  11:30      3.09    0.12    0.29
  P-STMPIP-000085      CONDUIT    555.12     0  09:30      3.22    0.22    0.32
  P-STMPIP-000086      CONDUIT    440.32     0  08:27      2.80    2.18    1.00
  
  
  ***************************
  Flow Classification Summary
  ***************************
  
  -------------------------------------------------------------------------------------
                      Adjusted    ---------- Fraction of Time in Flow Class ---------- 
                       /Actual         Up    Down  Sub   Sup   Up    Down  Norm  Inlet 
  Conduit               Length    Dry  Dry   Dry   Crit  Crit  Crit  Crit  Ltd   Ctrl  
  -------------------------------------------------------------------------------------
  10847                   1.00   0.01  0.00  0.00  0.15  0.84  0.00  0.00  0.00  0.00
  10848                   1.00   0.01  0.00  0.00  0.21  0.78  0.00  0.00  0.57  0.00
  10849                   1.00   0.01  0.00  0.00  0.20  0.00  0.00  0.79  0.00  0.00
  10850                   1.00   0.01  0.00  0.00  0.30  0.69  0.00  0.00  0.12  0.00
  11004                   1.00   0.01  0.00  0.00  0.00  0.99  0.00  0.00  0.98  0.00
  11007                   1.00   0.02  0.00  0.00  0.00  0.98  0.00  0.00  0.98  0.00
  11008                   1.00   0.02  0.00  0.00  0.00  0.00  0.00  0.98  0.00  0.00
  11009                   1.00   0.01  0.00  0.00  0.20  0.79  0.00  0.00  0.15  0.00
  11010                   1.00   0.01  0.00  0.00  0.01  0.98  0.00  0.00  0.28  0.00
  11037                   1.00   0.01  0.00  0.00  0.00  0.99  0.00  0.00  0.98  0.00
  11038                   1.00   0.01  0.00  0.00  0.00  0.99  0.00  0.00  0.98  0.00
  11039                   1.00   0.01  0.00  0.00  0.00  0.99  0.00  0.00  0.00  0.00
  11040                   1.00   0.01  0.00  0.00  0.00  0.99  0.00  0.00  0.98  0.00
  11041                   1.00   0.01  0.00  0.00  0.00  0.98  0.00  0.00  0.00  0.00
  11042                   1.00   0.01  0.00  0.00  0.00  0.98  0.00  0.00  0.98  0.00
  11050                   1.00   0.01  0.00  0.00  0.18  0.81  0.00  0.00  0.79  0.00
  11051                   1.00   0.01  0.00  0.00  0.16  0.83  0.00  0.00  0.55  0.00
  11052                   1.00   0.01  0.00  0.00  0.18  0.81  0.00  0.00  0.00  0.00
  11056                   1.00   0.01  0.00  0.00  0.14  0.00  0.00  0.84  0.07  0.00
  11057                   1.00   0.01  0.00  0.00  0.08  0.91  0.00  0.00  0.08  0.00
  11058                   1.00   0.01  0.00  0.00  0.00  0.00  0.00  0.99  0.00  0.00
  11059                   1.00   0.01  0.00  0.00  0.01  0.98  0.00  0.00  0.02  0.00
  130                     1.00   0.01  0.00  0.00  0.43  0.56  0.00  0.00  0.57  0.00
  131                     1.00   0.02  0.00  0.00  0.00  0.00  0.00  0.98  0.00  0.00
  133                     1.01   0.02  0.00  0.00  0.00  0.98  0.00  0.00  0.15  0.00
  15210                   1.00   0.02  0.00  0.00  0.00  0.00  0.00  0.98  0.00  0.00
  15211                   3.20   0.02  0.00  0.00  0.00  0.98  0.00  0.00  0.27  0.00
  15212                   1.00   0.02  0.00  0.00  0.00  0.98  0.00  0.00  0.00  0.00
  15214                   1.00   0.02  0.00  0.00  0.00  0.98  0.00  0.00  0.00  0.00
  15215                   1.00   0.02  0.00  0.00  0.00  0.98  0.00  0.00  0.89  0.00
  15224                   1.00   0.01  0.00  0.00  0.46  0.53  0.00  0.00  0.00  0.00
  15225                   1.00   0.02  0.00  0.00  0.46  0.53  0.00  0.00  0.01  0.00
  16629                   1.00   0.01  0.00  0.00  0.38  0.61  0.00  0.00  0.48  0.00
  16630                   1.87   0.01  0.00  0.00  0.00  0.00  0.00  0.99  0.00  0.00
  16679                   1.00   0.01  0.00  0.00  0.01  0.98  0.00  0.00  0.00  0.00
  16680                   1.00   0.01  0.00  0.00  0.01  0.98  0.00  0.00  0.00  0.00
  16681                   1.00   0.01  0.00  0.00  0.01  0.98  0.00  0.00  0.82  0.00
  16682                   1.00   0.01  0.00  0.00  0.01  0.98  0.00  0.00  0.45  0.00
  16700                   1.00   0.01  0.00  0.00  0.99  0.00  0.00  0.00  0.00  0.00
  169                     1.38   0.02  0.00  0.00  0.00  0.98  0.00  0.00  0.38  0.00
  18755                   1.00   0.01  0.00  0.00  0.99  0.00  0.00  0.00  0.07  0.00
  18756                   1.00   0.01  0.00  0.00  0.98  0.01  0.00  0.00  0.00  0.00
  2018                    1.00   0.02  0.00  0.00  0.00  0.98  0.00  0.00  0.98  0.00
  21                      1.00   0.01  0.00  0.00  0.15  0.84  0.00  0.00  0.81  0.00
  22                      1.00   0.01  0.00  0.00  0.04  0.00  0.00  0.95  0.00  0.00
  423                     1.00   0.02  0.00  0.00  0.00  0.98  0.00  0.00  0.00  0.00
  4234                    1.00   0.01  0.00  0.00  0.26  0.18  0.00  0.55  0.26  0.00
  427                     1.00   0.02  0.00  0.00  0.00  0.00  0.00  0.98  0.00  0.00
  428                     1.00   0.01  0.01  0.00  0.01  0.98  0.00  0.00  0.98  0.00
  428A                    1.00   0.01  0.00  0.00  0.00  0.00  0.00  0.99  0.00  0.00
  4479                    1.00   0.01  0.00  0.00  0.28  0.00  0.00  0.71  0.00  0.00
  789                     1.00   0.02  0.00  0.00  0.00  0.00  0.00  0.98  0.00  0.00
  CDT-13                  1.00   0.01  0.00  0.00  0.99  0.00  0.00  0.00  0.00  0.00
  P-STMPIP-000002         1.00   0.01  0.00  0.00  0.43  0.55  0.00  0.00  0.10  0.00
  P-STMPIP-000003         1.00   0.01  0.00  0.00  0.89  0.10  0.00  0.00  0.68  0.00
  P-STMPIP-000004         1.00   0.01  0.00  0.00  0.42  0.57  0.00  0.00  0.43  0.00
  P-STMPIP-000005         1.00   0.01  0.00  0.00  0.40  0.59  0.00  0.00  0.57  0.00
  P-STMPIP-000006         1.00   0.01  0.41  0.00  0.57  0.00  0.00  0.00  0.47  0.00
  P-STMPIP-000008         1.00   0.01  0.00  0.00  0.16  0.83  0.00  0.00  0.03  0.00
  P-STMPIP-000010         1.00   0.01  0.00  0.00  0.16  0.83  0.00  0.00  0.77  0.00
  P-STMPIP-000011         1.00   0.01  0.00  0.00  0.98  0.01  0.00  0.00  0.84  0.00
  P-STMPIP-000012         1.00   0.01  0.00  0.00  0.26  0.73  0.00  0.00  0.73  0.00
  P-STMPIP-000013         1.00   0.01  0.99  0.00  0.00  0.00  0.00  0.00  0.00  0.00
  P-STMPIP-000014         1.00   0.01  0.00  0.00  0.99  0.00  0.00  0.00  0.70  0.00
  P-STMPIP-000017         1.00   0.01  0.00  0.00  0.01  0.98  0.00  0.00  0.99  0.00
  P-STMPIP-000018         1.00   0.01  0.00  0.00  0.00  0.99  0.00  0.00  0.00  0.00
  P-STMPIP-000019         1.00   0.01  0.00  0.00  0.00  0.98  0.00  0.00  0.06  0.00
  P-STMPIP-000020         1.00   0.01  0.00  0.00  0.52  0.46  0.00  0.00  0.52  0.00
  P-STMPIP-000024         1.00   0.01  0.00  0.00  0.20  0.79  0.00  0.00  0.00  0.00
  P-STMPIP-000026         1.00   0.01  0.00  0.00  0.99  0.00  0.00  0.00  0.39  0.00
  P-STMPIP-000027         1.00   0.01  0.00  0.00  0.60  0.39  0.00  0.00  0.46  0.00
  P-STMPIP-000028         1.00   0.01  0.00  0.00  0.29  0.70  0.00  0.00  0.68  0.00
  P-STMPIP-000029         1.00   0.01  0.00  0.00  0.00  0.99  0.00  0.00  0.93  0.00
  P-STMPIP-000030         1.00   0.01  0.00  0.00  0.00  0.99  0.00  0.00  0.01  0.00
  P-STMPIP-000032         1.00   0.01  0.00  0.00  0.99  0.00  0.00  0.00  0.84  0.00
  P-STMPIP-000036         1.00   0.01  0.00  0.00  0.10  0.89  0.00  0.00  0.84  0.00
  P-STMPIP-000037         1.00   0.01  0.00  0.00  0.51  0.48  0.00  0.00  0.00  0.00
  P-STMPIP-000038         1.00   0.01  0.00  0.00  0.28  0.71  0.00  0.00  0.00  0.00
  P-STMPIP-000039         1.00   0.01  0.00  0.00  0.99  0.00  0.00  0.00  0.99  0.00
  P-STMPIP-000040         1.00   0.01  0.00  0.00  0.00  0.99  0.00  0.00  0.00  0.00
  P-STMPIP-000041         1.00   0.01  0.00  0.00  0.99  0.00  0.00  0.00  0.00  0.00
  P-STMPIP-000042         1.00   0.01  0.00  0.00  0.99  0.00  0.00  0.00  0.39  0.00
  P-STMPIP-000043         1.00   0.01  0.00  0.00  0.99  0.00  0.00  0.00  0.62  0.00
  P-STMPIP-000045         1.00   0.01  0.00  0.00  0.99  0.00  0.00  0.00  0.68  0.00
  P-STMPIP-000046         1.00   0.01  0.00  0.00  0.00  0.07  0.00  0.91  0.07  0.00
  P-STMPIP-000052         1.00   0.01  0.00  0.00  0.06  0.93  0.00  0.00  0.93  0.00
  P-STMPIP-000054         1.00   1.00  0.00  0.00  0.00  0.00  0.00  0.00  0.00  0.00
  P-STMPIP-000055         1.00   0.01  0.00  0.00  0.18  0.81  0.00  0.00  0.76  0.00
  P-STMPIP-000057         1.00   0.01  0.00  0.00  0.00  0.52  0.00  0.47  0.51  0.00
  P-STMPIP-000059         1.00   0.01  0.00  0.00  0.25  0.73  0.00  0.00  0.72  0.00
  P-STMPIP-000060         1.00   0.01  0.00  0.00  0.01  0.98  0.00  0.00  0.00  0.00
  P-STMPIP-000065         1.00   0.01  0.00  0.00  0.99  0.00  0.00  0.00  0.76  0.00
  P-STMPIP-000066         1.00   0.01  0.00  0.00  0.37  0.62  0.00  0.00  0.00  0.00
  P-STMPIP-000068         1.00   0.01  0.00  0.00  0.99  0.00  0.00  0.00  0.71  0.00
  P-STMPIP-000069         1.00   0.01  0.00  0.00  0.27  0.72  0.00  0.00  0.76  0.00
  P-STMPIP-000070         1.00   0.01  0.00  0.00  0.30  0.69  0.00  0.00  0.00  0.00
  P-STMPIP-000071         1.00   0.01  0.00  0.00  0.45  0.54  0.00  0.00  0.00  0.00
  P-STMPIP-000072         1.00   0.01  0.00  0.00  0.99  0.00  0.00  0.00  0.54  0.00
  P-STMPIP-000073         1.00   0.01  0.00  0.00  0.00  0.99  0.00  0.00  0.11  0.00
  P-STMPIP-000074         1.00   0.01  0.00  0.00  0.11  0.87  0.00  0.00  0.05  0.00
  P-STMPIP-000075         1.00   0.01  0.00  0.00  0.00  0.99  0.00  0.00  0.00  0.00
  P-STMPIP-000076         1.00   0.01  0.00  0.00  0.52  0.47  0.00  0.00  0.47  0.00
  P-STMPIP-000077         1.00   0.01  0.00  0.00  0.00  0.99  0.00  0.00  0.00  0.00
  P-STMPIP-000078         1.00   0.01  0.00  0.00  0.00  0.98  0.00  0.00  0.00  0.00
  P-STMPIP-000079         1.00   0.01  0.00  0.00  0.66  0.32  0.00  0.00  0.91  0.00
  P-STMPIP-000080         1.00   0.03  0.00  0.00  0.12  0.85  0.00  0.00  0.01  0.00
  P-STMPIP-000081         1.00   0.01  0.00  0.00  0.16  0.83  0.00  0.00  0.26  0.00
  P-STMPIP-000082         1.00   0.01  0.00  0.00  0.77  0.22  0.00  0.00  0.00  0.00
  P-STMPIP-000083         1.00   0.01  0.00  0.00  0.24  0.75  0.00  0.00  0.21  0.00
  P-STMPIP-000084         1.00   0.01  0.00  0.00  0.00  0.99  0.00  0.00  0.99  0.00
  P-STMPIP-000085         1.00   0.01  0.00  0.00  0.00  0.00  0.00  0.99  0.00  0.00
  P-STMPIP-000086         1.00   0.01  0.00  0.00  0.25  0.74  0.00  0.00  0.00  0.00
  
  
  *************************
  Conduit Surcharge Summary
  *************************
  
  ----------------------------------------------------------------------------
                                                           Hours        Hours 
                         --------- Hours Full --------   Above Full   Capacity
  Conduit                Both Ends  Upstream  Dnstream   Normal Flow   Limited
  ----------------------------------------------------------------------------
  10847                       7.15      9.84      7.15      9.48         7.15
  10848                       9.81      9.81      9.84      9.86         9.69
  10849                       9.62     12.53      9.62     14.84         9.62
  10850                      12.53     12.64     12.53     14.80        12.53
  11050                       5.43      5.43      8.03      0.01         0.01
  11051                       4.88      4.88      5.43      0.01         0.01
  11052                       8.03      8.03      8.12      0.01         0.01
  11056                       0.28      0.28      4.60      0.01         0.01
  11057                       0.01      0.01      0.28      0.01         0.01
  15224                      21.75     29.42     21.75     29.33        21.75
  15225                       0.01     21.75      0.01     22.18         0.01
  18755                       0.01      0.01      0.01      0.48         0.01
  18756                       0.01      0.01      0.01      3.55         0.01
  21                          7.15      7.15     14.14      0.01         0.01
  22                          9.20     14.14      9.20     15.85         9.20
  4234                        8.12      8.12      9.72      0.01         0.01
  4479                       12.56     12.97     12.56     14.76        12.56
  P-STMPIP-000002            20.70     20.70     20.75     20.80        20.70
  P-STMPIP-000003            13.09     13.09     20.76      0.01         0.01
  P-STMPIP-000004            18.90     20.76     18.90     20.88        18.90
  P-STMPIP-000005            18.71     18.71     21.03      5.89         5.89
  P-STMPIP-000006            16.24     16.24     19.25      0.01         0.01
  P-STMPIP-000008             5.91      5.94      6.56      1.98         1.05
  P-STMPIP-000010             6.56      6.56     11.00      0.01         0.01
  P-STMPIP-000011             5.72      5.72     11.21      0.01         0.01
  P-STMPIP-000012            11.00     11.00     13.52      0.01         0.01
  P-STMPIP-000014            13.44     13.44     14.49      9.56         9.56
  P-STMPIP-000020            21.99     21.99     24.01      8.05         8.05
  P-STMPIP-000024             4.56     15.03      4.56     14.94         4.56
  P-STMPIP-000026            28.44     28.44     28.87     22.21        22.46
  P-STMPIP-000027            23.83     23.83     28.03      7.27         7.27
  P-STMPIP-000028            13.60     13.60     17.31     12.11        12.11
  P-STMPIP-000032             5.26      5.26     20.92      0.01         0.01
  P-STMPIP-000036             4.56      4.56     11.05      0.01         0.01
  P-STMPIP-000037            23.89     23.89     24.04     11.03        11.03
  P-STMPIP-000038            12.68     12.68     12.93      0.01         0.01
  P-STMPIP-000039             0.01      0.01      2.76      0.01         0.01
  P-STMPIP-000040             0.01      2.76      0.01      2.75         0.01
  P-STMPIP-000041            28.87     28.87     28.95     27.94        27.97
  P-STMPIP-000042            28.03     28.03     28.78     19.97        20.02
  P-STMPIP-000043            10.99     11.00     12.43      0.01         0.01
  P-STMPIP-000045            12.43     12.43     15.03      0.12         0.12
  P-STMPIP-000046             0.01      0.01      3.15      0.01         0.01
  P-STMPIP-000052             0.01      0.01      6.99      0.01         0.01
  P-STMPIP-000055             7.63      7.63     12.92      0.01         0.01
  P-STMPIP-000059            11.71     11.71     13.60      0.01         0.01
  P-STMPIP-000060             0.01     17.31      0.01     15.78         0.01
  P-STMPIP-000065             0.01      0.01      0.01      1.97         0.01
  P-STMPIP-000066             0.01      0.01      0.01      2.09         0.01
  P-STMPIP-000068            12.93     12.93     14.49      0.01         0.01
  P-STMPIP-000069             0.01      0.01     13.61      0.01         0.01
  P-STMPIP-000070             0.01     13.61      0.01     14.64         0.01
  P-STMPIP-000071            20.70     22.51     20.70     23.47        20.70
  P-STMPIP-000072            20.89     20.89     22.41     11.14        11.14
  P-STMPIP-000074             5.30      5.32      7.63      7.63         5.30
  P-STMPIP-000075             0.01     20.92      0.01     22.26         0.01
  P-STMPIP-000076            24.12     24.12     24.88     21.76        21.76
  P-STMPIP-000077             0.01     24.88      0.01     24.10         0.01
  P-STMPIP-000079             0.01      0.01      6.02      0.01         0.01
  P-STMPIP-000080             5.65      5.86      5.95      5.95         5.65
  P-STMPIP-000081             0.01      7.60      0.01      8.90         0.01
  P-STMPIP-000082            29.08     29.08     29.32     26.78        26.77
  P-STMPIP-000083             4.36     11.05      4.36     11.36         4.36
  P-STMPIP-000086            11.71     14.49     11.71     15.59        11.71
  

  Analysis begun on:  Tue Jun 23 20:35:41 2026
  Analysis ended on:  Tue Jun 23 20:35:48 2026
  Total elapsed time: 00:00:07