
  EPA STORM WATER MANAGEMENT MODEL - VERSION 5.2 (Build 5.2.4)
  ------------------------------------------------------------

  WARNING 02: maximum depth increased for Node 4172
  
  ****************
  Analysis Options
  ****************
  Flow Units ............... LPS
  Process Models:
    Rainfall/Runoff ........ YES
    RDII ................... NO
    Snowmelt ............... NO
    Groundwater ............ NO
    Flow Routing ........... YES
    Ponding Allowed ........ YES
    Water Quality .......... NO
  Infiltration Method ...... HORTON
  Flow Routing Method ...... DYNWAVE
  Surcharge Method ......... EXTRAN
  Starting Date ............ 01/01/2002 00:00:00
  Ending Date .............. 01/03/2002 00:00:00
  Antecedent Dry Days ...... 5.0
  Report Time Step ......... 00:05:00
  Wet Time Step ............ 00:05:00
  Dry Time Step ............ 01:00:00
  Routing Time Step ........ 300.00 sec
  Variable Time Step ....... NO
  Maximum Trials ........... 8
  Number of Threads ........ 1
  Head Tolerance ........... 0.001500 m
  
  
  **************************        Volume         Depth
  Runoff Quantity Continuity     hectare-m            mm
  **************************     ---------       -------
  Total Precipitation ......        34.321        83.420
  Evaporation Loss .........         0.797         1.936
  Infiltration Loss ........         0.318         0.774
  Surface Runoff ...........        30.707        74.635
  Final Storage ............         2.501         6.079
  Continuity Error (%) .....        -0.005
  
  
  **************************        Volume        Volume
  Flow Routing Continuity        hectare-m      10^6 ltr
  **************************     ---------     ---------
  Dry Weather Inflow .......         0.000         0.000
  Wet Weather Inflow .......        30.704       307.042
  Groundwater Inflow .......         0.000         0.000
  RDII Inflow ..............         0.000         0.000
  External Inflow ..........         0.000         0.000
  External Outflow .........      1117.227     11172.382
  Flooding Loss ............     31102.002    311023.262
  Evaporation Loss .........         0.000         0.000
  Exfiltration Loss ........         0.000         0.000
  Initial Stored Volume ....         0.000         0.000
  Final Stored Volume ......         0.125         1.253
  Continuity Error (%) .....   -104835.884
  
  
  *************************
  Highest Continuity Errors
  *************************
  Node POND-LC1-A (-26044.40%)
  Node POND-L4-1 (-7857.64%)
  Node POND-L3-1 (-5712.65%)
  Node POND-L8 (-5479.43%)
  Node P-STMH-000035 (-5390.22%)
  
  
  ********************************
  Highest Flow Instability Indexes
  ********************************
  Link P-STMPIP-000085 (148)
  Link 428A (148)
  Link 11051 (148)
  Link P-STMPIP-000074 (148)
  Link 11059 (148)
  
  
  *********************************
  Most Frequent Nonconverging Nodes
  *********************************
  Node OFALL-10 (98.78%)
  Node OUT-DP-2 (98.78%)
  Node OUT-L10-1 (98.78%)
  Node OUT-L3-1 (98.78%)
  Node OUT-L3-C (98.78%)
  
  
  *************************
  Routing Time Step Summary
  *************************
  Minimum Time Step           :   300.00 sec
  Average Time Step           :   300.00 sec
  Maximum Time Step           :   300.00 sec
  % of Time in Steady State   :     0.00
  Average Iterations per Step :     7.93
  % of Steps Not Converging   :    98.78
  
  
  ***************************
  Subcatchment Runoff Summary
  ***************************
  
  ------------------------------------------------------------------------------------------------------------------------------
                            Total      Total      Total      Total     Imperv       Perv      Total       Total     Peak  Runoff
                           Precip      Runon       Evap      Infil     Runoff     Runoff     Runoff      Runoff   Runoff   Coeff
  Subcatchment                 mm         mm         mm         mm         mm         mm         mm    10^6 ltr      LPS
  ------------------------------------------------------------------------------------------------------------------------------
  DP-2-A                    83.42       0.00       1.93       0.78      48.37      47.17      75.08       10.61   209.66   0.900
  L10-1-A                   83.42       0.00       1.90       0.67      53.01      46.18      76.47        4.73   110.93   0.917
  L10-1-B                   83.42       0.00       1.89       0.87      45.02      49.89      75.61        2.14    49.18   0.906
  L3-1-A                    83.42       0.00       1.94       0.64      53.96      40.10      76.07        6.23   133.50   0.912
  L3-1-B                    83.42       0.00       1.92       0.50      59.56      37.47      77.18        3.38    81.57   0.925
  L3-1-C                    83.42       0.00       1.95       0.56      57.00      37.60      76.50        6.67   146.60   0.917
  L3-1-D                    83.42       0.00       1.95       0.46      60.91      36.53      77.13        5.60   129.70   0.925
  L3A-A                     83.42       0.00       1.91       1.05      37.85      43.76      73.70        7.04   134.02   0.884
  L3A-B                     83.42       0.00       1.91       0.99      40.18      41.92      74.07        7.94   154.49   0.888
  L3A-C                     83.42       0.00       1.92       0.43      62.33      24.14      77.62        6.18   161.83   0.931
  L3A-D                     83.42       0.00       1.90       1.10      35.83      45.44      74.01        5.41   109.03   0.887
  L3C-A                     83.42       0.00       1.95       1.05      37.60      41.24      69.50       28.09   409.80   0.833
  L4-1-A                    83.42       0.00       1.96       0.64      53.82      39.87      75.47       16.97   330.51   0.905
  L4-1-B                    83.42       0.00       1.90       0.65      53.88      36.76      76.67        4.36   107.76   0.919
  L4-1-C                    83.42       0.00       1.93       0.72      50.94      40.51      75.73        8.41   178.68   0.908
  L4-1A-A                   83.42       0.00       1.93       0.62      54.74      42.07      76.34       11.06   244.95   0.915
  L4-1A-B                   83.42       0.00       1.93       0.56      57.10      39.66      76.71        8.37   190.82   0.920
  L4-A                      83.42       0.00       1.96       0.68      52.36      32.58      75.19       19.26   379.87   0.901
  L6-A                      83.42       0.00       1.93       0.91      43.25      47.52      73.90        9.66   174.36   0.886
  L6-A-A                    83.42       0.00       1.95       0.93      42.40      34.92      72.11       21.05   358.53   0.864
  L6-B                      83.42       0.00       1.94       0.78      48.56      42.57      74.94        7.90   154.03   0.898
  L6-C                      83.42       0.00       1.93       0.72      50.91      46.62      75.71        5.09   107.35   0.908
  L6-D                      83.42       0.00       1.92       0.80      47.68      44.80      75.27        7.14   147.27   0.902
  L6-E                      83.42       0.00       1.96       0.58      56.11      40.51      76.25        7.67   163.40   0.914
  L8-A                      83.42       0.00       1.94       0.81      47.28      43.87      74.80       10.04   194.96   0.897
  L8-A-A                    83.42       0.00       1.95       0.68      52.47      41.40      75.56        8.58   172.87   0.906
  L8-A-B                    83.42       0.00       1.94       0.72      50.96      24.76      75.72        6.55   146.22   0.908
  L8-A-C                    83.42       0.00       1.92       0.91      43.15      49.74      74.53        7.82   153.19   0.893
  L8-A-D                    83.42       0.00       1.94       0.58      56.36      41.68      76.50        5.48   121.71   0.917
  L8-A-E                    83.42       0.00       1.90       0.82      47.12      48.04      75.71        3.31    74.36   0.908
  L8-A-F                    83.42       0.00       1.88       0.66      53.30      41.33      76.86        1.64    43.93   0.921
  L8-B                      83.42       0.00       1.93       0.68      52.26      42.41      75.96        5.50   118.64   0.911
  LC1-A-A                   83.42       0.00       1.91       0.74      50.08      42.58      75.96        6.67   149.17   0.911
  LC1-A-B                   83.42       0.00       1.93       1.11      35.21      48.07      71.55       10.24   163.38   0.858
  LC1-A-C                   83.42       0.00       1.89       0.83      46.58      44.70      75.75        4.62   106.27   0.908
  LC1-A-D                   83.42       0.00       1.84       0.50      59.88      37.89      77.80        0.30     8.89   0.933
  LC1-A-E                   83.42       0.00       1.86       0.50      59.81      37.82      77.70        0.68    19.76   0.931
  LC1-A-F                   83.42       0.00       1.94       0.28      68.18      32.71      78.17        4.89   125.94   0.937
  LC1-A-G                   83.42       0.00       1.93       0.66      53.03      35.64      76.07        9.80   214.03   0.912
  
  
  ******************
  Node Depth Summary
  ******************
  
  ---------------------------------------------------------------------------------
                                 Average  Maximum  Maximum  Time of Max    Reported
                                   Depth    Depth      HGL   Occurrence   Max Depth
  Node                 Type       Meters   Meters   Meters  days hr:min      Meters
  ---------------------------------------------------------------------------------
  1416                 JUNCTION     0.81     2.86    63.41     0  08:20        2.86
  1429                 JUNCTION     1.18     1.45    70.38     0  01:25        1.45
  22717                JUNCTION     1.33     1.67    17.47     0  00:45        1.66
  22755                JUNCTION     0.99     2.26    17.73     0  00:50        2.26
  22756                JUNCTION     0.39     2.29    16.69     0  00:40        2.29
  232234               JUNCTION     2.08     2.37    45.33     0  00:45        2.37
  232239               JUNCTION     1.85     2.54    44.38     0  01:05        2.54
  232243               JUNCTION     2.21     2.29    42.77     0  00:40        2.30
  232250               JUNCTION     1.95     2.02    40.63     0  00:40        2.03
  232255               JUNCTION     2.57     4.01    39.56     0  00:45        4.01
  232264               JUNCTION     0.29     1.45    44.68     0  02:10        1.45
  232299               JUNCTION     2.12     2.96    20.76     0  00:45        2.96
  232301               JUNCTION     1.89     2.75    19.50     0  00:50        2.75
  232303               JUNCTION     0.14     2.74    18.50     0  00:40        2.74
  234554               JUNCTION     1.17     1.45    70.28     0  00:45        1.45
  234557               JUNCTION     1.58     2.16    70.42     0  00:40        2.16
  234558               JUNCTION     1.66     2.10    70.07     0  00:50        2.10
  234559               JUNCTION     1.45     2.05    69.62     0  01:00        2.05
  234560               JUNCTION     1.13     1.82    68.94     0  00:55        1.82
  234561               JUNCTION     0.83     1.04    67.97     0  00:50        1.04
  234562               JUNCTION     0.48     1.75    66.66     0  00:55        1.75
  234876               JUNCTION     1.29     1.45    74.48     0  03:00        1.45
  24077                JUNCTION     1.76     2.11    70.44     0  00:45        2.11
  24078                JUNCTION     1.05     1.47    68.41     0  00:45        1.47
  24079                JUNCTION     1.24     1.45    67.87     0  00:40        1.45
  24088                JUNCTION     2.34     2.56    20.46     0  01:00        2.56
  24089                JUNCTION     1.55     2.25    18.34     0  00:50        2.25
  24566                JUNCTION     2.82     4.40    21.50     0  01:20        4.40
  2790                 JUNCTION     1.37     1.45    37.59     0  00:40        1.45
  2791                 JUNCTION     1.12     1.45    38.92     0  01:10        1.45
  2792                 JUNCTION     1.42     1.45    41.64     0  00:45        1.45
  3822                 JUNCTION     1.65     2.14    64.66     0  00:45        2.14
  3826                 JUNCTION     0.58     1.25    44.66     0  00:45        1.25
  4169                 JUNCTION     1.35     1.71    58.66     0  00:45        1.71
  4170                 JUNCTION     0.57     1.39    56.24     0  00:50        1.39
  4171                 JUNCTION     1.55     1.83    51.88     0  00:55        1.83
  4172                 JUNCTION     1.77     1.79    48.76     0  00:45        1.79
  4182                 JUNCTION     0.09     0.88    75.67     1  12:20        0.88
  4587                 JUNCTION     0.42     2.19    16.81     0  00:45        2.19
  4589                 JUNCTION     2.60     3.81    22.29     0  02:05        3.81
  4723                 JUNCTION     2.68     2.75    47.10     0  00:40        2.75
  4724                 JUNCTION     2.08     2.12    44.65     0  01:05        2.12
  4725                 JUNCTION     1.51     2.83    43.53     0  01:10        2.83
  4726                 JUNCTION     1.98     2.04    40.34     0  00:40        2.04
  4744                 JUNCTION     3.87     4.15    39.77     0  00:40        4.15
  4745                 JUNCTION     1.67     3.41    38.60     0  00:45        3.41
  4746                 JUNCTION     0.95     3.25    35.60     0  01:00        3.25
  4747                 JUNCTION     1.17     1.39    30.16     0  00:40        1.39
  JCT-10               JUNCTION     0.45     1.25    29.30     0  00:40        1.25
  JCT-20               JUNCTION     2.12     3.81    38.63     0  00:50        3.81
  JCT-24               JUNCTION     1.20     1.45    43.14     0  00:55        1.45
  JCT-26               JUNCTION     1.43     1.45    40.19     0  00:55        1.45
  JCT-28               JUNCTION     1.26     1.45    38.25     0  00:50        1.45
  JCT-48               JUNCTION     0.15     0.35    10.35     0  08:50        0.35
  P-STMH-000002        JUNCTION     0.75     1.25    36.24     0  01:25        1.25
  P-STMH-000003        JUNCTION     1.09     1.25    35.70     0  01:00        1.25
  P-STMH-000004        JUNCTION     2.98     4.34    38.44     0  01:25        4.34
  P-STMH-000008        JUNCTION     0.13     1.25    42.92     1  06:15        1.25
  P-STMH-000009        JUNCTION     1.22     1.25    34.58     0  00:50        1.25
  P-STMH-000013        JUNCTION     0.31     1.25    22.73     0  07:05        1.25
  P-STMH-000014        JUNCTION     0.48     1.25    18.45     0  06:25        1.25
  P-STMH-000015        JUNCTION     0.80     1.25    17.70     0  03:35        1.25
  P-STMH-000016        JUNCTION     0.93     1.04    17.00     0  00:45        1.04
  P-STMH-000017        JUNCTION     0.07     0.18    94.26     0  09:35        0.18
  P-STMH-000018        JUNCTION     0.40     1.25    85.46     0  06:55        1.25
  P-STMH-000019        JUNCTION     0.29     1.25    82.50     0  08:20        1.25
  P-STMH-000020        JUNCTION     0.00     0.00    78.96     0  00:00        0.00
  P-STMH-000021        JUNCTION     0.68     1.25    76.08     0  03:00        1.25
  P-STMH-000022        JUNCTION     0.77     1.25    74.49     0  03:15        1.25
  P-STMH-000025        JUNCTION     0.15     0.74    76.84     0  13:05        0.74
  P-STMH-000028        JUNCTION     0.08     1.25    80.99     1  01:35        1.25
  P-STMH-000030        JUNCTION     0.42     1.25    75.74     0  12:55        1.25
  P-STMH-000031        JUNCTION     0.62     1.25    71.55     1  01:55        1.25
  P-STMH-000032        JUNCTION     0.85     1.25    68.00     0  00:50        1.25
  P-STMH-000033        JUNCTION     0.98     1.25    68.32     0  00:40        1.25
  P-STMH-000034        JUNCTION     0.95     1.25    68.50     0  00:55        1.25
  P-STMH-000035        JUNCTION     0.13     1.04    72.29     1  10:20        1.04
  P-STMH-000036        JUNCTION     0.00     0.00    74.15     0  00:00        0.00
  P-STMH-000037        JUNCTION     0.00     0.00    78.21     0  00:00        0.00
  P-STMH-000041        JUNCTION     0.68     1.25    57.08     0  00:45        1.25
  P-STMH-000042        JUNCTION     0.82     1.25    55.36     0  00:45        1.25
  P-STMH-000043        JUNCTION     0.93     3.60    59.09     0  00:55        3.60
  P-STMH-000044        JUNCTION     0.05     0.13    73.72     0  08:35        0.13
  P-STMH-000045        JUNCTION     0.14     1.25    59.10     0  08:25        1.25
  P-STMH-000046        JUNCTION     0.04     0.11    59.84     0  08:30        0.11
  P-STMH-000047        JUNCTION     0.07     0.18    52.67     0  08:30        0.18
  P-STMH-000048        JUNCTION     0.37     0.75    49.69     0  00:40        0.75
  P-STMH-000050        JUNCTION     1.21     1.25    56.50     0  00:45        1.25
  P-STMH-000051        JUNCTION     1.11     1.25    60.92     0  00:40        1.25
  P-STMH-000052        JUNCTION     0.63     1.25    55.38     0  00:45        1.25
  P-STMH-000053        JUNCTION     0.80     1.25    52.84     0  00:40        1.25
  P-STMH-000057        JUNCTION     0.07     0.30    49.22     0  07:05        0.30
  P-STMH-000060        JUNCTION     0.80     1.25    54.52     0  05:05        1.25
  P-STMH-000064        JUNCTION     0.33     1.25    59.50     0  07:05        1.25
  P-STMH-000066        JUNCTION     0.50     1.25    56.52     0  01:05        1.25
  P-STMH-000068        JUNCTION     0.97     1.25    50.20     0  05:05        1.25
  P-STMH-000069        JUNCTION     0.14     0.66    44.91     0  01:00        0.66
  P-STMH-000070        JUNCTION     1.27     2.32    67.95     0  00:50        2.32
  OFALL-10             OUTFALL      0.08     0.21     9.21     0  08:50        0.21
  OUT-DP-2             OUTFALL      0.10     0.30    13.35     0  01:50        0.30
  OUT-L10-1            OUTFALL      0.16     0.38    44.76     0  00:40        0.38
  OUT-L3-1             OUTFALL      0.14     0.25    14.16     0  00:45        0.25
  OUT-L3-C             OUTFALL      0.57     0.60    17.60     0  01:20        0.60
  OUT-L3A              OUTFALL      0.00     0.45    30.03     0  00:40        0.45
  OUT-L4               OUTFALL      0.44     0.90    15.06     0  00:50        0.90
  OUT-L4-1             OUTFALL      0.19     0.38    28.68     0  00:45        0.38
  OUT-L4-1A            OUTFALL      0.14     0.30    40.57     0  01:05        0.30
  OUT-L6               OUTFALL      0.32     0.38    71.58     0  02:55        0.38
  OUT-L6-A             OUTFALL      0.15     0.45    63.45     0  05:45        0.45
  OUT-LB-8             OUTFALL      0.43     0.45    41.51     0  00:40        0.45
  OUT-LC1-A            OUTFALL      0.19     0.38    25.53     0  00:45        0.38
  POND-DP-2            STORAGE      0.31     3.04    16.75     1  02:05        3.04
  POND-L10-1           STORAGE      2.52    53.71   105.73     1  06:15       53.71
  POND-L3-1            STORAGE      0.94    22.53    38.40     0  02:10       22.53
  POND-L3-C            STORAGE      0.61    82.95   100.15     0  03:50       82.95
  POND-L3A             STORAGE      0.69   110.25   140.75     1  19:05      110.25
  POND-L4              STORAGE    256.54  10002.00  10020.70     1  13:30    10002.00
  POND-L4-1            STORAGE      3.64   104.86   137.02     0  03:00      104.86
  POND-L4-1A           STORAGE      1.79    25.75    78.78     0  20:35       25.75
  POND-L6              STORAGE      3.82    36.14   109.59     0  05:10       36.14
  POND-L6-A            STORAGE      0.55     4.11    70.36     0  11:35        4.11
  POND-L8              STORAGE      0.63    13.25    65.15     1  16:25       13.25
  POND-L8-A            STORAGE      4.36    25.99    92.14     1  09:05       25.99
  POND-LC1-A           STORAGE     40.02  2919.04  2955.02     0  02:40     2919.04
  
  
  *******************
  Node Inflow Summary
  *******************
  
  -------------------------------------------------------------------------------------------------
                                  Maximum  Maximum                  Lateral       Total        Flow
                                  Lateral    Total  Time of Max      Inflow      Inflow     Balance
                                   Inflow   Inflow   Occurrence      Volume      Volume       Error
  Node                 Type           LPS      LPS  days hr:min    10^6 ltr    10^6 ltr     Percent
  -------------------------------------------------------------------------------------------------
  1416                 JUNCTION      0.00 39158.40     0  14:10           0         477     -88.233
  1429                 JUNCTION      0.00  9846.26     0  16:05           0        87.8     -15.017
  22717                JUNCTION      0.00748705.65     1  21:55           0    1.09e+04      46.836
  22755                JUNCTION      0.00 21685.68     0  03:25           0         212      16.221
  22756                JUNCTION      0.00  2453.10     0  00:45           0        89.2     -79.534
  232234               JUNCTION      0.00 20113.25     0  01:30           0         651     -11.050
  232239               JUNCTION      0.00  9629.20     0  00:40           0         679      21.917
  232243               JUNCTION      0.00253003.56     0  04:30           0    2.16e+04      95.237
  232250               JUNCTION      0.00 79486.89     0  00:40           0    1.31e+03      -1.100
  232255               JUNCTION      0.00132963.31     0  07:25           0         268     -32.850
  232264               JUNCTION      0.00  3147.98     0  04:45           0        45.9     -89.464
  232299               JUNCTION      0.00329640.75     1  20:05           0    1.58e+03      -3.621
  232301               JUNCTION      0.00 62327.08     1  22:00           0         643     -30.189
  232303               JUNCTION      0.00357962.44     0  00:40           0    1.69e+03     -84.503
  234554               JUNCTION      0.00 20361.17     0  04:45           0        94.7      26.815
  234557               JUNCTION      0.00109154.28     0  04:45           0         854       9.844
  234558               JUNCTION      0.00 27288.08     0  02:55           0         259     -28.359
  234559               JUNCTION      0.00 24605.95     0  04:05           0         300     -15.956
  234560               JUNCTION      0.00 26008.86     0  15:45           0         312     -55.797
  234561               JUNCTION      0.00124020.33     0  23:10           0         814     -62.467
  234562               JUNCTION      0.00 21745.06     0  01:35           0         190     -91.896
  234876               JUNCTION      0.00 27721.10     1  12:25           0         633      74.047
  24077                JUNCTION    125.94 58263.82     0  08:30        4.89         236     -74.738
  24078                JUNCTION      0.00 40923.34     0  10:35           0         671     -11.367
  24079                JUNCTION      0.00138327.01     0  07:35           0    1.84e+03      11.228
  24088                JUNCTION      0.00193219.96     1  09:50           0     1.1e+03     -51.464
  24089                JUNCTION      0.00 67794.54     1  18:15           0         902     -15.283
  24566                JUNCTION      0.001473823.22     0  02:20           0    1.03e+04      88.068
  2790                 JUNCTION      0.00104607.32     0  04:30           0       2e+03       0.515
  2791                 JUNCTION      0.00  1548.58     0  00:40           0        82.3     -45.534
  2792                 JUNCTION      0.00 11152.27     1  11:10           0         105       4.214
  3822                 JUNCTION      0.00 40578.36     0  15:40           0     2.3e+03      61.039
  3826                 JUNCTION    330.51  2886.55     0  18:05          17        81.2     -24.235
  4169                 JUNCTION      0.00 60428.27     0  14:50           0    4.05e+03      67.628
  4170                 JUNCTION      0.00 56641.56     0  14:40           0         597     -78.501
  4171                 JUNCTION      0.00 51257.75     0  08:55           0    2.65e+03      68.652
  4172                 JUNCTION      0.00 62965.85     0  00:50           0    2.77e+03       0.029
  4182                 JUNCTION    163.38   163.38     0  11:35        10.2        10.2     -98.382
  4587                 JUNCTION      0.00 37444.03     1  19:55           0         797     -86.397
  4589                 JUNCTION      0.00454026817.76     1  19:45           0    3.55e+05      99.007
  4723                 JUNCTION      0.00 19889.73     0  00:40           0    1.27e+03      -0.441
  4724                 JUNCTION      0.00 88701.89     0  00:50           0         727       2.928
  4725                 JUNCTION      0.00 37497.59     0  00:55           0         562     -97.404
  4726                 JUNCTION      0.0049902732.41     0  02:45           0    7.65e+04       0.479
  4744                 JUNCTION      0.0017630328.03     0  02:45           0     2.7e+04      75.125
  4745                 JUNCTION      0.00 35792.68     0  01:45           0         269     -83.571
  4746                 JUNCTION      0.00 14304.98     0  02:30           0         180     -79.353
  4747                 JUNCTION      0.00 23489.51     0  07:50           0         762      72.789
  JCT-10               JUNCTION      0.00  7154.84     0  00:40           0        90.7     -92.557
  JCT-20               JUNCTION      0.00 50060.86     0  02:00           0    1.52e+03      68.182
  JCT-24               JUNCTION      0.00 14426.27     0  04:50           0         428      53.740
  JCT-26               JUNCTION      0.00   554.42     0  01:15           0          88      -0.494
  JCT-28               JUNCTION      0.00 17634.29     0  01:20           0         150      27.018
  JCT-48               JUNCTION    146.22   146.22     0  08:35        6.55        6.55       0.088
  P-STMH-000002        JUNCTION    154.49   635.03     1  14:50        7.94        11.7     -35.096
  P-STMH-000003        JUNCTION      0.00  6756.66     1  14:40           0         122      13.143
  P-STMH-000004        JUNCTION    109.03  5394.61     0  09:35        5.41         279     -26.022
  P-STMH-000008        JUNCTION    134.02   134.02     0  09:35        7.04        7.04     -97.225
  P-STMH-000009        JUNCTION    161.83407322.24     1  19:10        6.18         430      -0.761
  P-STMH-000013        JUNCTION    210.47   210.47     0  09:35        8.98        8.98      -0.010
  P-STMH-000014        JUNCTION      0.00   112.76     0  07:35           0        7.39      -1.219
  P-STMH-000015        JUNCTION    133.50   466.57     0  03:35        6.23        14.2       8.321
  P-STMH-000016        JUNCTION    146.60 38394.11     0  09:30        6.67         548       1.260
  P-STMH-000017        JUNCTION    107.35   107.35     0  09:35        5.09        5.09       0.007
  P-STMH-000018        JUNCTION    147.27   255.39     0  09:35        7.13        12.2      -0.043
  P-STMH-000019        JUNCTION    174.36   278.30     0  09:35        9.66        18.3      -1.118
  P-STMH-000020        JUNCTION      0.00     0.00     0  00:00           0           0       0.000 ltr
  P-STMH-000021        JUNCTION    163.40 66616.88     0  04:55        7.67         773      -2.961
  P-STMH-000022        JUNCTION      0.00 78305.61     0  04:55           0     1.7e+03      90.450
  P-STMH-000025        JUNCTION    172.87   172.87     0  09:35        8.58        8.58      -3.389
  P-STMH-000028        JUNCTION    121.71   121.71     0  09:35        5.48        5.48     -94.477
  P-STMH-000030        JUNCTION      0.00  3087.55     0  13:05           0         108     -68.491
  P-STMH-000031        JUNCTION      0.00  7351.09     1  02:25           0         313      -6.984
  P-STMH-000032        JUNCTION     74.36104927.15     1  22:15        3.31    1.19e+03      -3.344
  P-STMH-000033        JUNCTION      0.00 70637.33     1  22:15           0         745      41.655
  P-STMH-000034        JUNCTION      0.00  8977.24     0  06:30           0         436      49.098
  P-STMH-000035        JUNCTION    153.19   153.19     0  09:35        7.82        7.82     -98.179
  P-STMH-000036        JUNCTION      0.00     0.00     0  00:00           0           0       0.000 ltr
  P-STMH-000037        JUNCTION      0.00     0.00     0  00:00           0           0       0.000 ltr
  P-STMH-000041        JUNCTION    110.93  3346.28     1  05:30        4.73        33.8     -35.853
  P-STMH-000042        JUNCTION     49.18 42392.95     1  10:50        2.14         386       1.233
  P-STMH-000043        JUNCTION      0.00  2018.76     0  13:00           0        36.2     -81.646
  P-STMH-000044        JUNCTION     43.93    43.93     0  08:35        1.64        1.64      -1.206
  P-STMH-000045        JUNCTION    106.27   135.14     0  08:35        4.62        5.61      -0.042
  P-STMH-000046        JUNCTION     28.65    28.65     0  08:35       0.984       0.984       0.003
  P-STMH-000047        JUNCTION      0.00   123.93     0  08:35           0        5.57       0.018
  P-STMH-000048        JUNCTION    149.17 23244.37     0  00:50        6.67         458     -83.455
  P-STMH-000050        JUNCTION      0.00  7050.57     1  02:40           0         102       7.987
  P-STMH-000051        JUNCTION    194.96 14177.83     1  16:05          10         333      -2.844
  P-STMH-000052        JUNCTION    118.64 22150.58     1  16:30         5.5         141     -46.048
  P-STMH-000053        JUNCTION      0.00 60540.58     1  16:30           0    1.07e+03      73.291
  P-STMH-000057        JUNCTION    107.76   107.76     0  08:35        4.36        4.36     -92.753
  P-STMH-000060        JUNCTION    190.82170195.18     1  10:05        8.36    1.04e+03      -5.376
  P-STMH-000064        JUNCTION    244.95   244.95     0  09:35        11.1        11.1      -0.188
  P-STMH-000066        JUNCTION      0.00  9034.52     0  10:00           0         159     -22.179
  P-STMH-000068        JUNCTION      0.00 22165.64     1  10:05           0         353      50.119
  P-STMH-000069        JUNCTION      0.00   379.52     1  09:30           0        20.1     -96.434
  P-STMH-000070        JUNCTION      0.00 62248.00     1  09:10           0    1.28e+03      48.391
  OFALL-10             OUTFALL       0.00   144.19     0  08:50           0        6.55       0.000
  OUT-DP-2             OUTFALL       0.00  8090.40     1  02:10           0         181       0.000
  OUT-L10-1            OUTFALL       0.00 28988.32     1  10:50           0         477       0.000
  OUT-L3-1             OUTFALL       0.00 10686.89     0  00:55           0         422       0.000
  OUT-L3-C             OUTFALL       0.00 40054.30     0  04:05           0         490       0.000
  OUT-L3A              OUTFALL       0.00118079.09     1  19:10           0        97.7       0.000
  OUT-L4               OUTFALL       0.00134721.83     1  18:50           0    5.84e+03       0.000
  OUT-L4-1             OUTFALL       0.00 79928.28     0  04:00           0    1.46e+03       0.000
  OUT-L4-1A            OUTFALL       0.00  7559.15     0  04:55           0         564       0.000
  OUT-L6               OUTFALL       0.00  4850.73     0  03:00           0        55.3       0.000
  OUT-L6-A             OUTFALL       0.00  9936.85     0  08:45           0         245       0.000
  OUT-LB-8             OUTFALL       0.00  4000.61     1  17:20           0         118       0.000
  OUT-LC1-A            OUTFALL       0.00 14950.54     0  00:50           0    1.22e+03       0.000
  POND-DP-2            STORAGE     209.66   209.66     0  09:35        10.6        10.6     -94.153
  POND-L10-1           STORAGE       0.00  6966.64     1  14:30           0         103     -85.494
  POND-L3-1            STORAGE       0.00  2944.23     0  02:05           0        12.8     -98.280
  POND-L3-C            STORAGE     409.80  3307.93     1  19:35        28.1          40     -99.613
  POND-L3A             STORAGE       0.00  9315.93     0  01:00           0        8.31     -98.045
  POND-L4              STORAGE     379.87219415.97     1  18:10        19.3         499     -99.860
  POND-L4-1            STORAGE     178.68 14675.77     0  04:40        8.41        42.4     -98.743
  POND-L4-1A           STORAGE       0.00  5891.66     1  02:25           0         119     -91.297
  POND-L6              STORAGE     154.03  3699.36     0  04:50         7.9        70.6     -97.113
  POND-L6-A            STORAGE     358.53   358.53     0  09:35          21          21     -91.398
  POND-L8              STORAGE       0.00  4262.42     1  17:20           0        17.2     -98.208
  POND-L8-A            STORAGE       0.00  7055.06     1  22:10           0         211     -92.809
  POND-LC1-A           STORAGE     214.03 88121.94     0  04:40         9.8         393     -99.618
  
  
  **********************
  Node Surcharge Summary
  **********************
  
  Surcharging occurs when water rises above the top of the highest conduit.
  ---------------------------------------------------------------------
                                               Max. Height   Min. Depth
                                   Hours       Above Crown    Below Rim
  Node                 Type      Surcharged         Meters       Meters
  ---------------------------------------------------------------------
  1416                 JUNCTION       26.58          1.610        0.000
  1429                 JUNCTION       46.25          1.000        0.000
  22717                JUNCTION       47.25          0.765        0.000
  22755                JUNCTION       39.25          1.885        0.000
  22756                JUNCTION       14.50          2.040        0.000
  232234               JUNCTION       47.25          1.319        0.000
  232239               JUNCTION       47.17          1.489        0.000
  232243               JUNCTION       47.25          1.245        0.000
  232250               JUNCTION       46.58          0.975        0.000
  232255               JUNCTION       46.58          3.563        0.000
  232264               JUNCTION       17.33          1.000        0.000
  232299               JUNCTION       44.75          2.058        0.000
  232301               JUNCTION       44.42          1.850        0.000
  232303               JUNCTION        4.17          1.844        0.000
  234554               JUNCTION       47.00          1.000        0.000
  234557               JUNCTION       45.00          1.485        0.000
  234558               JUNCTION       44.17          1.426        0.000
  234559               JUNCTION       43.67          1.376        0.000
  234560               JUNCTION       41.50          1.149        0.000
  234561               JUNCTION       41.75          0.370        0.000
  234562               JUNCTION       23.08          1.000        0.000
  234876               JUNCTION       46.67          0.925        0.000
  24077                JUNCTION       43.08          1.435        0.000
  24078                JUNCTION       43.50          0.795        0.000
  24079                JUNCTION       42.08          0.275        0.000
  24088                JUNCTION       45.58          1.660        0.000
  24089                JUNCTION       45.00          1.350        0.000
  24566                JUNCTION       45.50          3.800        0.000
  2790                 JUNCTION       46.00          0.925        0.000
  2791                 JUNCTION       45.42          1.000        0.000
  2792                 JUNCTION       47.33          1.000        0.000
  3822                 JUNCTION       47.08          1.390        0.000
  3826                 JUNCTION       27.67          0.950        0.000
  4169                 JUNCTION       45.67          0.960        0.000
  4170                 JUNCTION       25.25          0.640        0.000
  4171                 JUNCTION       47.25          1.030        0.000
  4172                 JUNCTION       47.33          0.000        0.000
  4182                 JUNCTION        5.00          0.359        0.566
  4587                 JUNCTION       20.75          1.260        0.000
  4589                 JUNCTION       46.42          2.910        0.000
  4723                 JUNCTION       46.75          0.850        0.000
  4724                 JUNCTION       47.25          0.990        0.000
  4725                 JUNCTION       47.00          1.660        0.000
  4726                 JUNCTION       47.25          0.990        0.000
  4744                 JUNCTION       46.42          3.690        0.000
  4745                 JUNCTION       32.83          2.770        0.000
  4746                 JUNCTION       24.17          2.800        0.000
  4747                 JUNCTION       47.33          0.940        0.000
  JCT-10               JUNCTION       23.83          0.340        0.000
  JCT-20               JUNCTION       39.33          3.364        0.000
  JCT-24               JUNCTION       47.00          1.000        0.000
  JCT-26               JUNCTION       47.25          1.000        0.000
  JCT-28               JUNCTION       46.75          1.000        0.000
  P-STMH-000002        JUNCTION       40.00          0.800        0.000
  P-STMH-000003        JUNCTION       46.08          0.800        0.000
  P-STMH-000004        JUNCTION       33.00          0.950        0.000
  P-STMH-000008        JUNCTION       14.75          0.950        0.000
  P-STMH-000009        JUNCTION       47.25          0.800        0.000
  P-STMH-000013        JUNCTION       10.33          0.950        0.000
  P-STMH-000014        JUNCTION       19.58          0.950        0.000
  P-STMH-000015        JUNCTION       39.92          0.800        0.000
  P-STMH-000016        JUNCTION       47.17          0.590        0.000
  P-STMH-000018        JUNCTION       13.75          0.950        0.000
  P-STMH-000019        JUNCTION       10.67          0.875        0.000
  P-STMH-000021        JUNCTION       26.92          0.800        0.000
  P-STMH-000022        JUNCTION       40.42          0.875        0.000
  P-STMH-000025        JUNCTION        4.00          0.360        0.515
  P-STMH-000028        JUNCTION        7.42          0.950        0.000
  P-STMH-000030        JUNCTION       23.92          0.875        0.000
  P-STMH-000031        JUNCTION       32.58          0.875        0.000
  P-STMH-000032        JUNCTION       38.17          0.800        0.000
  P-STMH-000033        JUNCTION       44.08          0.800        0.000
  P-STMH-000034        JUNCTION       44.08          0.800        0.000
  P-STMH-000035        JUNCTION       16.50          0.744        0.206
  P-STMH-000041        JUNCTION       33.08          0.875        0.000
  P-STMH-000042        JUNCTION       40.25          0.875        0.000
  P-STMH-000043        JUNCTION       27.58          3.225        0.000
  P-STMH-000045        JUNCTION        2.83          0.950        0.000
  P-STMH-000048        JUNCTION       23.83          0.000        0.540
  P-STMH-000050        JUNCTION       47.17          0.800        0.000
  P-STMH-000051        JUNCTION       44.58          0.800        0.000
  P-STMH-000052        JUNCTION       30.58          0.800        0.000
  P-STMH-000053        JUNCTION       44.50          0.800        0.000
  P-STMH-000057        JUNCTION        6.92          0.000        0.950
  P-STMH-000060        JUNCTION       38.92          0.800        0.000
  P-STMH-000064        JUNCTION       10.67          0.950        0.000
  P-STMH-000066        JUNCTION       27.75          0.875        0.000
  P-STMH-000068        JUNCTION       43.25          0.950        0.000
  P-STMH-000069        JUNCTION       22.17          0.361        0.589
  P-STMH-000070        JUNCTION       39.08          1.870        0.000
  POND-DP-2            STORAGE        15.42          2.736        0.000
  POND-L10-1           STORAGE        19.33         53.336        0.000
  POND-L3-1            STORAGE         8.33         22.081        0.000
  POND-L3-C            STORAGE        22.33         82.345        0.000
  POND-L3A             STORAGE         0.67        109.800        0.000
  POND-L4              STORAGE        43.08      10001.100        0.000
  POND-L4-1            STORAGE        23.50        104.281        0.000
  POND-L4-1A           STORAGE        12.42         25.299        0.000
  POND-L6              STORAGE        24.00         35.690        0.000
  POND-L6-A            STORAGE        10.00          3.658        0.000
  POND-L8              STORAGE        16.33         12.796        0.000
  POND-L8-A            STORAGE        16.75         25.541        0.000
  POND-LC1-A           STORAGE        45.42       2917.866        0.000
  
  
  *********************
  Node Flooding Summary
  *********************
  
  Flooding refers to all water that overflows a node, whether it ponds or not.
  --------------------------------------------------------------------------
                                                             Total   Maximum
                                 Maximum   Time of Max       Flood    Ponded
                        Hours       Rate    Occurrence      Volume     Depth
  Node                 Flooded       LPS   days hr:min    10^6 ltr    Meters
  --------------------------------------------------------------------------
  1416                    0.42   3280.73      0  20:55       3.291     0.000
  1429                   12.00   3791.38      0  16:05      10.053     0.000
  22717                  26.58 370663.72      1  22:00    5712.805     0.000
  22755                  12.33  10738.31      0  03:30      83.044     0.000
  22756                   7.17   1600.64      0  00:45      13.968     0.000
  232234                  0.33   9336.87      0  01:00       5.069     0.000
  232239                  0.17   2984.99      0  01:40       1.244     0.000
  232243                 22.75 123032.82      0  06:40    9827.622     0.000
  232250                 44.75  41688.91      0  00:45     511.918     0.000
  232255                  3.17  65719.48      0  07:25     119.423     0.000
  232264                  5.17    847.34      1  05:25       3.371     0.000
  232299                  3.67 162117.83      1  16:20     526.467     0.000
  232301                  2.83  20987.81      0  00:50      47.777     0.000
  232303                  0.25 178981.22      0  00:40      73.981     0.000
  234554                 10.17   8074.80      0  01:05      19.451     0.000
  234557                  4.83  57185.21      0  04:45     350.227     0.000
  234558                  5.42   8838.18      0  04:35      37.571     0.000
  234559                  4.75  11690.69      0  04:05      62.622     0.000
  234560                  6.75  19703.96      0  15:45      58.544     0.000
  234561                  6.17  63097.44      0  23:15     291.950     0.000
  234562                  5.67  11631.92      0  22:10      43.153     0.000
  234876                 19.67  13369.64      1  12:25     282.089     0.000
  24077                  33.50  29219.38      0  08:35     122.300     0.000
  24078                   7.67  20852.46      0  09:50     222.384     0.000
  24079                  35.67  69163.52      0  07:35    1149.209     0.000
  24088                  39.25 149084.67      1  14:50     704.847     0.000
  24089                   5.08  31369.57      1  17:20     179.461     0.000
  24566                  21.83 735696.32      0  02:20    4992.919     0.000
  2790                   44.58  52418.36      0  03:10    1951.660     0.000
  2791                    1.83    459.12      0  01:10       2.963     0.000
  2792                   37.67   5431.48      1  11:15      12.512     0.000
  3822                   18.42  18171.71      0  15:40     953.772     0.000
  3826                   15.58   1469.96      0  09:25      61.290     0.000
  4169                   23.92  28470.09      0  14:50    1817.173     0.000
  4170                   11.92  44246.02      0  14:40     130.769     0.000
  4171                   19.67  24402.89      0  08:55    1122.457     0.000
  4172                   47.33  44249.76      0  00:50    1500.732     0.000
  4587                    0.58  18292.05      1  21:35      14.501     0.000
  4589                    2.58 227003307.58      1  19:45  183251.078     0.000
  4723                   46.67   9944.87      0  00:40     624.949     0.000
  4724                   46.58   1760.33      0  01:10      26.641     0.000
  4725                    0.17   2174.97      0  01:10       0.918     0.000
  4726                   44.83 24964650.41      0  02:50   75788.253     0.000
  4744                   42.42 8814152.69      0  02:45   15178.396     0.000
  4745                    9.42  26957.81      0  01:45      91.159     0.000
  4746                   11.75   6365.03      0  02:30     108.390     0.000
  4747                   20.42  11618.92      0  05:50     350.396     0.000
  JCT-10                  0.25   3577.42      0  00:40       2.399     0.000
  JCT-20                 18.92  24646.26      0  02:00     687.110     0.000
  JCT-24                 20.58   8130.35      0  04:50     173.711     0.000
  JCT-26                 46.17     91.50      0  01:20       6.170     0.000
  JCT-28                  2.17   8580.97      0  02:15      37.316     0.000
  P-STMH-000002           4.42    337.48      1  15:30       1.841     0.000
  P-STMH-000003          34.92   3509.36      1  08:20      83.989     0.000
  P-STMH-000004          29.08   2008.97      0  09:35     175.844     0.000
  P-STMH-000008           0.75     13.82      1  06:15       0.032     0.000
  P-STMH-000009          45.17 203847.67      1  19:15     424.734     0.000
  P-STMH-000013           8.25     97.61      0  09:35       1.587     0.000
  P-STMH-000014          12.75     38.94      0  08:40       1.531     0.000
  P-STMH-000015          11.33    176.40      0  03:35       1.441     0.000
  P-STMH-000016          24.25  19343.71      0  09:30     536.990     0.000
  P-STMH-000018          12.08    151.50      0  09:40       3.557     0.000
  P-STMH-000019           3.25     14.45      0  09:40       0.118     0.000
  P-STMH-000021          25.17  33397.12      0  06:15     740.916     0.000
  P-STMH-000022          18.33  38819.09      0  04:55     831.911     0.000
  P-STMH-000028           0.08     26.67      1  01:35       0.008     0.000
  P-STMH-000030           7.50   1310.98      0  13:10      31.399     0.000
  P-STMH-000031          13.00   3365.89      1  11:35     154.378     0.000
  P-STMH-000032          25.33  52628.08      1  22:20    1097.944     0.000
  P-STMH-000033          19.42  35108.58      1  22:20     442.625     0.000
  P-STMH-000034          18.25   4421.70      1  08:20     189.850     0.000
  P-STMH-000041          14.83   1676.54      1  05:30      18.822     0.000
  P-STMH-000042          18.33  21197.00      1  10:55     278.190     0.000
  P-STMH-000043           4.67   1006.38      1  09:20       9.252     0.000
  P-STMH-000045           1.50     10.46      0  08:40       0.038     0.000
  P-STMH-000050          45.42   3316.83      1  02:40      44.112     0.000
  P-STMH-000051          37.67  11183.01      1  16:05     240.549     0.000
  P-STMH-000052          14.25  10260.49      1  14:30      44.273     0.000
  P-STMH-000053          15.58  30076.44      1  16:30     500.673     0.000
  P-STMH-000060          18.50  85103.92      1  10:10     975.405     0.000
  P-STMH-000064           9.08    118.92      0  09:35       1.962     0.000
  P-STMH-000066           9.75   4454.40      0  10:00      52.009     0.000
  P-STMH-000068          24.58  10954.76      1  10:05     215.523     0.000
  P-STMH-000070          17.75  30741.89      1  17:10     541.811     0.000
  POND-L4                 0.08 102186.50      1  13:30      30.656 10000.000
  
  
  **********************
  Storage Volume Summary
  **********************
  
  ------------------------------------------------------------------------------------------------
                         Average    Avg   Evap  Exfil     Maximum    Max    Time of Max    Maximum
                          Volume   Pcnt   Pcnt   Pcnt      Volume   Pcnt     Occurrence    Outflow
  Storage Unit           1000 mł   Full   Loss   Loss     1000 mł   Full    days hr:min        LPS
  ------------------------------------------------------------------------------------------------
  POND-DP-2                0.000    0.0    0.0    0.0       0.000    0.0       0  00:00    8090.40
  POND-L10-1               0.000    0.0    0.0    0.0       0.000    0.0       0  00:00   70007.51
  POND-L3-1                0.000    0.0    0.0    0.0       0.000    0.0       0  00:00   48032.16
  POND-L3-C                0.000    0.0    0.0    0.0       0.000    0.0       0  00:00  1473823.22
  POND-L3A                 0.000    0.0    0.0    0.0       0.000    0.0       0  00:00  525280.67
  POND-L4                  0.000    0.0    0.0    0.0       0.000    0.0       0  00:00  454026817.76
  POND-L4-1                0.000    0.0    0.0    0.0       0.000    0.0       0  00:00  163092.61
  POND-L4-1A               0.000    0.0    0.0    0.0       0.000    0.0       0  00:00  192347.81
  POND-L6                  0.000    0.0    0.0    0.0       0.000    0.0       0  00:00  144833.84
  POND-L6-A                0.000    0.0    0.0    0.0       0.000    0.0       0  00:00    9936.85
  POND-L8                  0.000    0.0    0.0    0.0       0.000    0.0       0  00:00   80524.74
  POND-L8-A                0.000    0.0    0.0    0.0       0.000    0.0       0  00:00  219608.70
  POND-LC1-A               0.000    0.0    0.0    0.0       0.000    0.0       0  00:00  67533060.44
  
  
  ***********************
  Outfall Loading Summary
  ***********************
  
  -----------------------------------------------------------
                         Flow       Avg       Max       Total
                         Freq      Flow      Flow      Volume
  Outfall Node           Pcnt       LPS       LPS    10^6 ltr
  -----------------------------------------------------------
  OFALL-10              97.92     38.70    144.19       6.548
  OUT-DP-2              32.47   3234.57   8090.40     181.459
  OUT-L10-1             42.53   6499.28  28988.32     476.959
  OUT-L3-1              56.94   4287.40  10686.89     421.828
  OUT-L3-C              94.44   3005.91  40054.30     490.194
  OUT-L3A                4.34  13023.32 118079.09      97.675
  OUT-L4                49.31  68792.79 134721.83    5840.938
  OUT-L4-1              50.17  16843.26  79928.28    1457.845
  OUT-L4-1A             48.61   6717.14   7559.15     564.239
  OUT-L6                86.11    372.00   4850.73      55.302
  OUT-L6-A              35.42   3996.91   9936.85     244.611
  OUT-LB-8              96.01    713.12   4000.61     118.201
  OUT-LC1-A             49.48  14228.45  14950.54    1216.532
  -----------------------------------------------------------
  System                57.21 141752.85 205122.60   11172.331
  
  
  ********************
  Link Flow Summary
  ********************
  
  -----------------------------------------------------------------------------
                                 Maximum  Time of Max   Maximum    Max/    Max/
                                  |Flow|   Occurrence   |Veloc|    Full    Full
  Link                 Type          LPS  days hr:min     m/sec    Flow   Depth
  -----------------------------------------------------------------------------
  10847                CONDUIT  14304.98     0  02:30    >50.00   31.20    1.00
  10848                CONDUIT  50060.86     0  02:00    >50.00  113.35    1.00
  10849                CONDUIT  35792.68     0  01:45    >50.00  120.28    1.00
  10850                CONDUIT 132963.31     0  07:25    >50.00  445.68    1.00
  11004                CONDUIT   3252.65     0  00:55     20.45    6.89    1.00
  11007                CONDUIT  40578.36     0  15:40    >50.00   14.82    1.00
  11008                CONDUIT  21745.06     0  01:35    >50.00   33.80    1.00
  11009                CONDUIT   3346.51     0  02:15     32.53   16.05    1.00
  11010                CONDUIT  20361.15     0  04:45    >50.00   62.67    1.00
  11037                CONDUIT  11152.27     1  11:10    >50.00   18.59    1.00
  11038                CONDUIT  14426.27     0  04:50    >50.00   23.19    1.00
  11039                CONDUIT   1548.58     0  00:40      9.74    3.53    1.00
  11040                CONDUIT    554.42     0  01:15      3.49    1.07    1.00
  11041                CONDUIT  10711.25     0  05:20    >50.00   22.48    1.00
  11042                CONDUIT  17634.29     0  01:20    >50.00   35.57    1.00
  11050                CONDUIT  17568.68     0  04:20     20.29    4.34    1.00
  11051                CONDUIT 253003.56     0  04:30    >50.00   62.36    1.00
  11052                CONDUIT  79486.89     0  00:40    >50.00   19.66    1.00
  11056                CONDUIT  34028.33     0  00:55    >50.00   10.46    1.00
  11057                CONDUIT   9629.20     0  00:40     11.12    2.99    1.00
  11058                CONDUIT  88701.89     0  00:50    >50.00   24.41    1.00
  11059                CONDUIT  20113.25     0  01:30     23.23    5.71    1.00
  130                  CONDUIT 454026817.76     1  19:45    >50.00  176716.48    1.00
  131                  CONDUIT 113330.06     1  12:35    >50.00  145.44    1.00
  133                  CONDUIT 134721.83     1  18:50    >50.00   33.28    1.00
  15210                CONDUIT  37444.03     1  19:55    >50.00   14.03    1.00
  15211                CONDUIT 748705.65     1  21:55    >50.00  279.73    1.00
  15212                CONDUIT 124549.66     1  20:55    >50.00   46.64    1.00
  15214                CONDUIT  67794.54     1  18:15    >50.00   27.34    1.00
  15215                CONDUIT  62327.08     1  22:00    >50.00   25.14    1.00
  15224                CONDUIT   2453.10     0  00:45    >50.00   30.08    1.00
  15225                CONDUIT  10686.89     0  00:55    >50.00   62.73    1.00
  16629                CONDUIT  40923.34     0  10:35    >50.00   48.26    1.00
  16630                CONDUIT 138327.01     0  07:35    >50.00  329.06    1.00
  16679                CONDUIT 109154.28     0  04:45    >50.00  132.27    1.00
  16680                CONDUIT  27288.08     0  02:55    >50.00   32.96    1.00
  16681                CONDUIT  24605.95     0  04:05    >50.00   29.31    1.00
  16682                CONDUIT  26008.83     0  15:45    >50.00   31.38    1.00
  16700                CONDUIT  52737.62     0  23:35    >50.00  150.22    1.00
  169                  CONDUIT 329640.75     1  20:05    >50.00  130.59    1.00
  18755                CONDUIT 1473823.22     0  02:20    >50.00  3618.92    1.00
  18756                CONDUIT  40054.30     0  04:05    >50.00  101.97    1.00
  2018                 CONDUIT  60428.27     0  14:50    >50.00   21.52    1.00
  21                   CONDUIT  23489.51     0  07:50    >50.00   32.40    1.00
  22                   CONDUIT   7154.84     0  00:40    >50.00   25.57    1.00
  423                  CONDUIT  56641.56     0  14:40    >50.00   23.58    1.00
  4234                 CONDUIT 49902732.41     0  02:45    >50.00  9613.01    1.00
  427                  CONDUIT  51257.75     0  08:55    >50.00   16.31    1.00
  428                  CONDUIT  23244.27     0  00:50    >50.00   10.27    1.00
  428A                 CONDUIT  62965.85     0  00:50    >50.00   27.74    1.00
  4479                 CONDUIT 17630328.03     0  02:45    >50.00  58881.18    1.00
  789                  CONDUIT  39158.40     0  14:10    >50.00   16.13    1.00
  CDT-13               CONDUIT    144.19     0  08:50      0.79    0.17    0.26
  P-STMPIP-000002      CONDUIT   4850.73     0  03:00    >50.00   16.94    1.00
  P-STMPIP-000003      CONDUIT    108.12     0  09:35      1.80    0.64    0.79
  P-STMPIP-000004      CONDUIT    122.29     0  08:05      1.75    1.20    1.00
  P-STMPIP-000005      CONDUIT    295.43     0  09:35      4.55    1.05    1.00
  P-STMPIP-000006      CONDUIT      0.00     0  00:00      0.00    0.00    0.50
  P-STMPIP-000008      CONDUIT    632.70     1  01:45     11.46    3.94    1.00
  P-STMPIP-000010      CONDUIT   7350.35     1  16:05    >50.00   20.11    1.00
  P-STMPIP-000011      CONDUIT     43.83     0  08:35      2.56    0.39    0.72
  P-STMPIP-000012      CONDUIT   6596.68     1  00:55    >50.00   19.19    1.00
  P-STMPIP-000013      CONDUIT      0.00     0  00:00      0.00    0.00    0.50
  P-STMPIP-000014      CONDUIT 104590.71     1  22:15    >50.00  389.99    1.00
  P-STMPIP-000017      CONDUIT   4997.41     0  23:25    >50.00   22.47    1.00
  P-STMPIP-000018      CONDUIT  41019.19     1  10:50    >50.00  150.66    1.00
  P-STMPIP-000019      CONDUIT  28988.32     1  10:50    >50.00   58.05    1.00
  P-STMPIP-000020      CONDUIT    152.50     0  16:35      3.48    1.12    1.00
  P-STMPIP-000024      CONDUIT   4785.42     1  10:55     30.09   28.47    1.00
  P-STMPIP-000026      CONDUIT    176.53     0  03:25      1.11    1.53    1.00
  P-STMPIP-000027      CONDUIT    112.76     0  07:35      2.02    1.00    1.00
  P-STMPIP-000028      CONDUIT   7050.57     1  02:40     44.33   14.71    1.00
  P-STMPIP-000029      CONDUIT   4119.64     1  17:40    >50.00   11.79    1.00
  P-STMPIP-000030      CONDUIT   4000.61     1  17:20     25.15    5.88    1.00
  P-STMPIP-000032      CONDUIT   2698.73     0  18:05     38.18   17.47    1.00
  P-STMPIP-000036      CONDUIT 407201.58     1  19:10    >50.00  612.82    1.00
  P-STMPIP-000037      CONDUIT 170182.17     1  10:05    >50.00  769.16    1.00
  P-STMPIP-000038      CONDUIT  10740.46     1  13:40    >50.00   41.18    1.00
  P-STMPIP-000039      CONDUIT     28.87     0  08:35      0.62    0.30    0.69
  P-STMPIP-000040      CONDUIT    123.93     0  08:35      2.18    1.01    0.80
  P-STMPIP-000041      CONDUIT  38109.66     0  06:30    >50.00  339.54    1.00
  P-STMPIP-000042      CONDUIT    457.62     0  03:35      6.47    6.20    1.00
  P-STMPIP-000043      CONDUIT   1827.10     1  09:00     17.45   10.70    1.00
  P-STMPIP-000045      CONDUIT   6653.75     1  13:45     41.84   39.59    1.00
  P-STMPIP-000046      CONDUIT   5333.90     0  20:45    >50.00   25.92    1.00
  P-STMPIP-000052      CONDUIT   2937.38     0  13:05    >50.00   18.03    1.00
  P-STMPIP-000054      CONDUIT      0.00     0  00:00      0.00    0.00    0.00
  P-STMPIP-000055      CONDUIT   8977.24     0  06:30    >50.00   34.58    1.00
  P-STMPIP-000057      CONDUIT    126.50     0  08:35      2.87    0.67    0.79
  P-STMPIP-000059      CONDUIT  14172.84     1  16:05    >50.00   27.11    1.00
  P-STMPIP-000060      CONDUIT   1168.27     1  16:00     14.69    4.23    1.00
  P-STMPIP-000065      CONDUIT   3339.63     1  21:30     40.34   32.31    1.00
  P-STMPIP-000066      CONDUIT   9034.52     0  10:00    >50.00   88.02    1.00
  P-STMPIP-000068      CONDUIT  70637.33     1  22:15    >50.00  260.42    1.00
  P-STMPIP-000069      CONDUIT  21845.32     1  16:30    >50.00   59.71    1.00
  P-STMPIP-000070      CONDUIT  58679.42     1  16:30    >50.00  287.77    1.00
  P-STMPIP-000071      CONDUIT  78305.61     0  04:55    >50.00  743.20    1.00
  P-STMPIP-000072      CONDUIT  66528.23     0  04:55    >50.00  185.78    1.00
  P-STMPIP-000073      CONDUIT   9936.85     0  08:45    >50.00   20.34    1.00
  P-STMPIP-000074      CONDUIT  14950.54     0  00:50    >50.00   24.17    1.00
  P-STMPIP-000075      CONDUIT   3147.98     0  04:45    >50.00   43.66    1.00
  P-STMPIP-000076      CONDUIT  22165.64     1  10:05    >50.00  143.02    1.00
  P-STMPIP-000077      CONDUIT    379.52     1  09:30     10.74    2.71    1.00
  P-STMPIP-000078      CONDUIT   7559.15     0  04:55    >50.00   23.44    1.00
  P-STMPIP-000079      CONDUIT 104607.32     0  04:30    >50.00  125.24    1.00
  P-STMPIP-000080      CONDUIT  79928.28     0  04:00    >50.00  169.35    1.00
  P-STMPIP-000081      CONDUIT   8090.40     1  02:10    >50.00   59.27    1.00
  P-STMPIP-000082      CONDUIT  21685.68     0  03:25    >50.00  182.09    1.00
  P-STMPIP-000083      CONDUIT 118079.09     1  19:10    >50.00  422.95    1.00
  P-STMPIP-000084      CONDUIT  27721.10     1  12:25    >50.00   21.17    1.00
  P-STMPIP-000085      CONDUIT  19889.73     0  00:40    >50.00    7.73    1.00
  P-STMPIP-000086      CONDUIT  62248.00     1  09:10    >50.00  308.70    1.00
  
  
  ***************************
  Flow Classification Summary
  ***************************
  
  -------------------------------------------------------------------------------------
                      Adjusted    ---------- Fraction of Time in Flow Class ---------- 
                       /Actual         Up    Down  Sub   Sup   Up    Down  Norm  Inlet 
  Conduit               Length    Dry  Dry   Dry   Crit  Crit  Crit  Crit  Ltd   Ctrl  
  -------------------------------------------------------------------------------------
  10847                   1.00   0.17  0.01  0.00  0.49  0.34  0.00  0.00  0.08  0.00
  10848                   1.00   0.01  0.00  0.00  0.74  0.25  0.00  0.00  0.15  0.00
  10849                   1.00   0.02  0.00  0.00  0.66  0.02  0.00  0.31  0.00  0.00
  10850                   1.00   0.01  0.00  0.00  0.11  0.88  0.00  0.00  0.00  0.00
  11004                   1.00   0.02  0.00  0.00  0.95  0.03  0.00  0.00  0.00  0.00
  11007                   1.00   0.02  0.52  0.00  0.46  0.00  0.00  0.00  0.01  0.00
  11008                   1.00   0.10  0.02  0.00  0.41  0.00  0.00  0.47  0.04  0.00
  11009                   1.00   0.01  0.00  0.00  0.30  0.69  0.00  0.00  0.00  0.00
  11010                   1.00   0.01  0.00  0.00  0.95  0.04  0.00  0.00  0.00  0.00
  11037                   1.00   0.01  0.01  0.00  0.98  0.00  0.00  0.00  0.00  0.00
  11038                   1.00   0.02  0.54  0.00  0.44  0.00  0.00  0.00  0.03  0.00
  11039                   1.00   0.01  0.00  0.00  0.94  0.05  0.00  0.00  0.00  0.00
  11040                   1.00   0.01  0.00  0.00  0.98  0.00  0.00  0.00  0.00  0.00
  11041                   1.00   0.02  0.00  0.00  0.96  0.02  0.00  0.00  0.00  0.00
  11042                   1.00   0.01  0.02  0.00  0.95  0.02  0.00  0.00  0.03  0.00
  11050                   1.00   0.01  0.00  0.00  0.97  0.02  0.00  0.00  0.00  0.00
  11051                   1.00   0.01  0.00  0.00  0.98  0.01  0.00  0.00  0.00  0.00
  11052                   1.00   0.01  0.00  0.00  0.97  0.02  0.00  0.00  0.00  0.00
  11056                   1.00   0.02  0.00  0.00  0.98  0.00  0.00  0.01  0.00  0.00
  11057                   1.00   0.02  0.00  0.00  0.98  0.00  0.00  0.00  0.00  0.00
  11058                   1.00   0.01  0.00  0.00  0.98  0.00  0.00  0.00  0.00  0.00
  11059                   1.00   0.02  0.00  0.00  0.98  0.00  0.00  0.00  0.01  0.00
  130                     1.00   0.02  0.00  0.00  0.15  0.83  0.00  0.00  0.05  0.00
  131                     1.00   0.02  0.00  0.00  0.22  0.00  0.03  0.73  0.00  0.00
  133                     1.00   0.49  0.00  0.00  0.49  0.01  0.00  0.00  0.47  0.00
  15210                   1.00   0.47  0.01  0.00  0.42  0.00  0.00  0.09  0.01  0.00
  15211                   1.00   0.01  0.00  0.00  0.50  0.48  0.00  0.00  0.00  0.00
  15212                   1.00   0.01  0.00  0.00  0.91  0.08  0.00  0.00  0.00  0.00
  15214                   1.00   0.02  0.00  0.00  0.89  0.08  0.00  0.00  0.02  0.00
  15215                   1.00   0.03  0.01  0.00  0.89  0.06  0.00  0.00  0.01  0.00
  15224                   1.00   0.09  0.01  0.00  0.64  0.27  0.00  0.00  0.00  0.00
  15225                   1.00   0.43  0.00  0.00  0.57  0.00  0.00  0.00  0.00  0.00
  16629                   1.00   0.03  0.00  0.00  0.82  0.15  0.00  0.00  0.05  0.00
  16630                   1.00   0.03  0.00  0.00  0.74  0.10  0.00  0.13  0.00  0.00
  16679                   1.00   0.02  0.00  0.00  0.28  0.70  0.00  0.00  0.01  0.00
  16680                   1.00   0.03  0.00  0.00  0.90  0.08  0.00  0.00  0.01  0.00
  16681                   1.00   0.03  0.00  0.00  0.90  0.07  0.00  0.00  0.03  0.00
  16682                   1.00   0.04  0.00  0.00  0.81  0.15  0.00  0.00  0.03  0.00
  16700                   1.00   0.05  0.00  0.00  0.80  0.14  0.00  0.00  0.00  0.00
  169                     1.00   0.01  0.00  0.00  0.21  0.77  0.00  0.00  0.00  0.00
  18755                   1.00   0.03  0.00  0.00  0.79  0.18  0.00  0.00  0.38  0.00
  18756                   1.00   0.02  0.01  0.00  0.94  0.02  0.00  0.00  0.01  0.00
  2018                    1.00   0.02  0.42  0.00  0.54  0.03  0.00  0.00  0.00  0.00
  21                      1.00   0.01  0.56  0.00  0.42  0.00  0.00  0.00  0.01  0.00
  22                      1.00   0.01  0.00  0.00  0.49  0.00  0.00  0.49  0.00  0.00
  423                     1.00   0.02  0.03  0.00  0.50  0.46  0.00  0.00  0.00  0.00
  4234                    1.00   0.01  0.00  0.00  0.92  0.00  0.00  0.07  0.00  0.00
  427                     1.00   0.01  0.47  0.00  0.52  0.00  0.00  0.00  0.00  0.00
  428                     1.00   0.01  0.00  0.00  0.50  0.49  0.00  0.00  0.00  0.00
  428A                    1.00   0.01  0.49  0.00  0.00  0.00  0.00  0.49  0.00  0.00
  4479                    1.00   0.02  0.00  0.00  0.10  0.03  0.00  0.85  0.03  0.00
  789                     1.00   0.02  0.00  0.00  0.55  0.00  0.00  0.43  0.00  0.00
  CDT-13                  1.00   0.01  0.00  0.00  0.99  0.00  0.00  0.00  0.00  0.00
  P-STMPIP-000002         1.00   0.09  0.05  0.00  0.86  0.00  0.00  0.00  0.00  0.00
  P-STMPIP-000003         1.00   0.01  0.00  0.00  0.71  0.28  0.00  0.00  0.99  0.00
  P-STMPIP-000004         1.00   0.01  0.00  0.00  0.35  0.64  0.00  0.00  0.57  0.00
  P-STMPIP-000005         1.00   0.01  0.00  0.00  0.66  0.33  0.00  0.00  0.71  0.00
  P-STMPIP-000006         1.00   0.20  0.80  0.00  0.00  0.00  0.00  0.00  0.00  0.00
  P-STMPIP-000008         1.00   0.01  0.00  0.00  0.58  0.41  0.00  0.00  0.44  0.00
  P-STMPIP-000010         1.00   0.01  0.24  0.00  0.37  0.37  0.00  0.00  0.21  0.00
  P-STMPIP-000011         1.00   0.01  0.00  0.00  0.84  0.15  0.00  0.00  0.84  0.00
  P-STMPIP-000012         1.00   0.01  0.14  0.00  0.68  0.16  0.00  0.00  0.12  0.00
  P-STMPIP-000013         1.00   0.56  0.44  0.00  0.00  0.00  0.00  0.00  0.00  0.00
  P-STMPIP-000014         1.00   0.14  0.00  0.00  0.45  0.41  0.00  0.00  0.01  0.00
  P-STMPIP-000017         1.00   0.05  0.22  0.00  0.64  0.09  0.00  0.00  0.29  0.00
  P-STMPIP-000018         1.00   0.06  0.03  0.00  0.44  0.47  0.00  0.00  0.04  0.00
  P-STMPIP-000019         1.00   0.37  0.21  0.00  0.42  0.00  0.00  0.00  0.01  0.00
  P-STMPIP-000020         1.00   0.01  0.00  0.00  0.81  0.18  0.00  0.00  0.69  0.00
  P-STMPIP-000024         1.00   0.01  0.00  0.00  0.92  0.07  0.00  0.00  0.12  0.00
  P-STMPIP-000026         1.00   0.01  0.00  0.00  0.98  0.00  0.00  0.00  0.01  0.00
  P-STMPIP-000027         1.00   0.01  0.00  0.00  0.44  0.55  0.00  0.00  0.73  0.00
  P-STMPIP-000028         1.00   0.01  0.03  0.00  0.95  0.00  0.00  0.00  0.01  0.00
  P-STMPIP-000029         1.00   0.02  0.55  0.00  0.40  0.03  0.00  0.00  0.00  0.00
  P-STMPIP-000030         1.00   0.01  0.03  0.00  0.96  0.00  0.00  0.00  0.00  0.00
  P-STMPIP-000032         1.00   0.01  0.15  0.00  0.51  0.33  0.00  0.00  0.37  0.00
  P-STMPIP-000036         1.00   0.01  0.00  0.00  0.05  0.94  0.00  0.00  0.00  0.00
  P-STMPIP-000037         1.00   0.09  0.00  0.00  0.53  0.38  0.00  0.00  0.04  0.00
  P-STMPIP-000038         1.00   0.02  0.00  0.00  0.92  0.07  0.00  0.00  0.01  0.00
  P-STMPIP-000039         1.00   0.01  0.00  0.00  0.99  0.00  0.00  0.00  0.98  0.00
  P-STMPIP-000040         1.00   0.01  0.00  0.00  0.02  0.97  0.00  0.00  0.00  0.00
  P-STMPIP-000041         1.00   0.01  0.00  0.00  0.28  0.70  0.00  0.00  0.00  0.00
  P-STMPIP-000042         1.00   0.01  0.00  0.00  0.98  0.00  0.00  0.00  0.55  0.00
  P-STMPIP-000043         1.00   0.01  0.01  0.00  0.93  0.05  0.00  0.00  0.06  0.00
  P-STMPIP-000045         1.00   0.02  0.00  0.00  0.85  0.12  0.00  0.00  0.00  0.00
  P-STMPIP-000046         1.00   0.11  0.30  0.00  0.43  0.00  0.00  0.17  0.14  0.00
  P-STMPIP-000052         1.00   0.02  0.37  0.00  0.28  0.34  0.00  0.00  0.23  0.00
  P-STMPIP-000054         1.00   1.00  0.00  0.00  0.00  0.00  0.00  0.00  0.00  0.00
  P-STMPIP-000055         1.00   0.05  0.51  0.00  0.44  0.01  0.00  0.00  0.24  0.00
  P-STMPIP-000057         1.00   0.01  0.00  0.00  0.41  0.08  0.00  0.49  0.47  0.00
  P-STMPIP-000059         1.00   0.01  0.09  0.00  0.86  0.04  0.00  0.00  0.03  0.00
  P-STMPIP-000060         1.00   0.01  0.00  0.00  0.40  0.59  0.00  0.00  0.00  0.00
  P-STMPIP-000065         1.00   0.13  0.01  0.00  0.53  0.33  0.00  0.00  0.15  0.00
  P-STMPIP-000066         1.00   0.17  0.00  0.00  0.52  0.30  0.00  0.00  0.19  0.00
  P-STMPIP-000068         1.00   0.05  0.00  0.00  0.55  0.40  0.00  0.00  0.00  0.00
  P-STMPIP-000069         1.00   0.29  0.27  0.00  0.42  0.02  0.00  0.00  0.00  0.00
  P-STMPIP-000070         1.00   0.01  0.00  0.00  0.69  0.30  0.00  0.00  0.32  0.00
  P-STMPIP-000071         1.00   0.02  0.00  0.00  0.62  0.36  0.00  0.00  0.36  0.00
  P-STMPIP-000072         1.00   0.20  0.00  0.00  0.45  0.35  0.00  0.00  0.05  0.00
  P-STMPIP-000073         1.00   0.37  0.28  0.00  0.35  0.00  0.00  0.00  0.01  0.00
  P-STMPIP-000074         1.00   0.51  0.00  0.00  0.49  0.00  0.00  0.00  0.00  0.00
  P-STMPIP-000075         1.00   0.24  0.00  0.00  0.40  0.36  0.00  0.00  0.02  0.00
  P-STMPIP-000076         1.00   0.01  0.43  0.00  0.48  0.08  0.00  0.00  0.06  0.00
  P-STMPIP-000077         1.00   0.02  0.00  0.00  0.47  0.51  0.00  0.00  0.09  0.00
  P-STMPIP-000078         1.00   0.50  0.01  0.00  0.49  0.00  0.00  0.00  0.00  0.00
  P-STMPIP-000079         1.00   0.02  0.00  0.00  0.94  0.04  0.00  0.00  0.00  0.00
  P-STMPIP-000080         1.00   0.49  0.01  0.00  0.50  0.00  0.00  0.00  0.01  0.00
  P-STMPIP-000081         1.00   0.34  0.34  0.00  0.32  0.00  0.00  0.00  0.00  0.00
  P-STMPIP-000082         1.00   0.02  0.09  0.00  0.67  0.23  0.00  0.00  0.19  0.00
  P-STMPIP-000083         1.00   0.94  0.00  0.00  0.05  0.00  0.00  0.00  0.01  0.00
  P-STMPIP-000084         1.00   0.02  0.54  0.00  0.44  0.01  0.00  0.00  0.12  0.00
  P-STMPIP-000085         1.00   0.01  0.49  0.00  0.48  0.00  0.00  0.01  0.49  0.00
  P-STMPIP-000086         1.00   0.06  0.14  0.00  0.67  0.13  0.00  0.00  0.34  0.00
  
  
  *************************
  Conduit Surcharge Summary
  *************************
  
  ----------------------------------------------------------------------------
                                                           Hours        Hours 
                         --------- Hours Full --------   Above Full   Capacity
  Conduit                Both Ends  Upstream  Dnstream   Normal Flow   Limited
  ----------------------------------------------------------------------------
  10847                      11.67     38.50     20.00     31.50         8.08
  10848                      27.50     36.08     38.50     28.33         1.75
  10849                      45.17     45.42     47.00     45.42        37.17
  10850                       4.58      6.42     45.42      4.83         2.25
  11004                      45.33     47.25     45.33     33.17        32.25
  11007                      17.67     17.83     47.08     21.33         0.08
  11008                      40.17     42.33     43.75     39.42        36.08
  11009                      13.83     46.92     14.17     38.08         3.92
  11010                      44.75     45.08     46.92     41.33        31.42
  11037                      46.67     46.75     47.17      0.67         0.01
  11038                      12.08     12.17     47.17     20.83         0.01
  11039                      44.58     47.25     44.75     47.08        43.50
  11040                      47.25     47.25     47.33     12.67         0.33
  11041                      44.75     45.50     46.25      3.17         0.92
  11042                      43.42     44.67     46.17      1.83         0.17
  11050                      23.75     24.67     46.42     46.83        23.50
  11051                      24.42     47.08     24.67     46.92         0.01
  11052                      46.25     46.42     47.25     23.67         1.17
  11056                      46.92     47.08     47.17     23.50        46.67
  11057                      47.08     47.42     47.08     47.00        46.58
  11058                      47.17     47.17     47.42     46.92        46.83
  11059                      46.92     47.08     47.25     23.83        46.50
  130                         2.00      2.83     45.50      4.25         0.67
  131                        47.33     47.33     47.42     44.83        43.58
  133                         0.01     23.67      0.01     23.67         0.01
  15210                       3.50      4.08     46.75     24.33         3.17
  15211                       3.17     44.25      4.08     45.42         1.33
  15212                      40.08     42.08     44.25     24.17        37.08
  15214                      38.67     43.08     42.08     42.50        36.83
  15215                      40.67     43.50     44.17     43.75        37.42
  15224                       7.67     47.42      7.67     43.00         7.25
  15225                       0.01      7.42      0.01     27.33         0.01
  16629                      31.17     38.00     38.50     36.75        28.50
  16630                      34.92     38.92     41.67     39.58        29.92
  16679                       9.00     13.08     42.58      9.83         2.50
  16680                      39.00     42.58     42.67     40.75         5.92
  16681                      38.67     42.67     41.50     40.17        34.42
  16682                      34.33     41.50     38.08     40.58        31.42
  16700                      33.42     38.50     38.92     40.50        31.08
  169                         7.83     11.08     43.50     10.00         2.00
  18755                      20.83     21.42     43.33     26.25         1.00
  18756                      41.58     43.33     44.50     45.33        36.25
  2018                       45.75     47.25     45.83     24.75         5.00
  21                         12.50     12.58     47.33     19.92         0.75
  22                         46.83     47.25     46.83     43.58        46.67
  423                        13.08     45.58     14.75     21.00        11.67
  4234                       45.33     47.25     45.50      3.17         2.33
  427                        14.58     14.58     47.33     22.17         0.01
  428                        23.83     47.42     23.83     35.92        23.67
  428A                        0.17     23.83     23.75     23.83         0.08
  4479                       43.58     44.17     46.33     44.33        41.67
  789                        46.33     46.83     46.83     29.83        44.92
  P-STMPIP-000002            25.92     26.08     45.08     41.33        17.25
  P-STMPIP-000003             0.01      0.01     13.75      0.01         0.01
  P-STMPIP-000004            10.83     13.67     10.83     14.17         6.17
  P-STMPIP-000005             4.00      9.33     36.08      3.25         4.00
  P-STMPIP-000008             1.00      3.75     22.67      3.42         0.01
  P-STMPIP-000010            17.25     22.67     32.00     11.17         6.33
  P-STMPIP-000011             0.01      0.01     33.00      0.01         0.01
  P-STMPIP-000012            27.17     30.50     41.33     10.42         7.42
  P-STMPIP-000014             6.33     37.92     12.83     24.67         0.50
  P-STMPIP-000017            13.00     21.50     36.83     22.33         2.50
  P-STMPIP-000018             8.17     34.17     13.58     24.50         4.83
  P-STMPIP-000019            13.50     19.92     38.58     20.33         5.75
  P-STMPIP-000020             8.08     10.42     38.75      6.83         4.33
  P-STMPIP-000024            38.33     38.33     47.25     35.17        33.17
  P-STMPIP-000026            39.00     39.08     47.08     15.17        15.50
  P-STMPIP-000027            10.33     10.33     19.58      0.01         0.01
  P-STMPIP-000028            43.92     44.17     47.00     24.08         0.08
  P-STMPIP-000029            15.83     16.00     31.75     19.17         0.50
  P-STMPIP-000030            44.42     44.42     47.42     46.08        31.08
  P-STMPIP-000032             6.75      6.92     23.25      7.00         0.01
  P-STMPIP-000036             0.33     47.25      0.42      0.58         0.08
  P-STMPIP-000037            14.58     38.50     15.83     30.00         9.50
  P-STMPIP-000038            36.67     41.83     41.42     15.25        10.50
  P-STMPIP-000039             0.01      0.01      2.83      0.01         0.01
  P-STMPIP-000040             0.01      2.83      0.01      1.75         0.01
  P-STMPIP-000041             4.25     47.08      4.25      4.67         0.25
  P-STMPIP-000042            19.58     19.58     46.75      7.25         1.92
  P-STMPIP-000043            37.67     38.42     45.83      7.00         1.42
  P-STMPIP-000045            37.67     45.58     38.42     38.58         4.83
  P-STMPIP-000046            12.00     12.92     34.92     16.58         0.01
  P-STMPIP-000052             6.33      7.33     13.17     17.58         0.01
  P-STMPIP-000055            15.25     15.33     45.75     16.92         0.01
  P-STMPIP-000057             0.01      0.01     23.75      0.01         0.01
  P-STMPIP-000059            26.58     28.75     44.67     36.50        12.25
  P-STMPIP-000060            15.75     46.83     16.08     46.08        15.42
  P-STMPIP-000065             7.92     24.17     20.92     19.83         3.83
  P-STMPIP-000066             9.17     20.92     21.50     26.17         2.33
  P-STMPIP-000068             7.75     41.42     10.08     23.92         0.33
  P-STMPIP-000069            13.17     16.00     15.00      3.83        12.92
  P-STMPIP-000070            14.92     14.92     44.42     15.25         1.58
  P-STMPIP-000071             7.25     18.33     26.08     24.00         6.50
  P-STMPIP-000072             8.17     26.75     26.42     17.58         1.42
  P-STMPIP-000073            11.92     27.17     15.25     15.92         0.01
  P-STMPIP-000074            23.83     47.33     23.83     23.75         0.25
  P-STMPIP-000075             9.58     23.33     24.25     28.67         9.08
  P-STMPIP-000076            41.25     43.17     41.33     22.58         8.33
  P-STMPIP-000077            18.17     39.83     22.00     18.08        18.08
  P-STMPIP-000078             0.01     21.92     22.75     22.75         0.01
  P-STMPIP-000079            22.75     45.33     24.42     23.42         1.00
  P-STMPIP-000080            23.00     23.33     25.83     24.08        22.00
  P-STMPIP-000081             0.01     23.42      0.01     15.00         0.01
  P-STMPIP-000082             8.17     12.08     39.33     15.83         0.33
  P-STMPIP-000083             0.17      0.58     45.25      0.42         0.01
  P-STMPIP-000084             1.50      1.50     47.08     19.67         0.01
  P-STMPIP-000085            23.67     23.75     47.33     23.75        23.67
  P-STMPIP-000086             0.50     11.08     35.92     17.08         0.17
  

  Analysis begun on:  Tue Jun 23 20:35:41 2026
  Analysis ended on:  Tue Jun 23 20:35:41 2026
  Total elapsed time: < 1 sec