
  EPA STORM WATER MANAGEMENT MODEL - VERSION 5.2 (Build 5.2.4)
  ------------------------------------------------------------

  Scenario Run :  ONEMINUTE 
  WARNING 02: maximum depth increased for Node 80408C
  
  *************
  Element Count
  *************
  Number of rain gages ...... 0
  Number of subcatchments ... 0
  Number of nodes ........... 61
  Number of links ........... 61
  Number of pollutants ...... 1
  Number of land uses ....... 0
  
  
  *****************
  Pollutant Summary
  *****************
                               Ppt.      GW         Kdecay
  Name                 Units   Concen.   Concen.    1/days    CoPollutant
  -----------------------------------------------------------------------
  TSS                   MG/L     10.00      0.00      0.00
  
  
  ************
  Node Summary
  ************
                                           Invert      Max.    Ponded    External
  Name                 Type                 Elev.     Depth      Area    Inflow  
  -------------------------------------------------------------------------------
  10309                JUNCTION            101.60      9.40       0.0
  10309A               JUNCTION            101.60      9.40       0.0
  10309B               JUNCTION            101.60      9.40       0.0
  10309C               JUNCTION            101.60      9.40       0.0
  10309D               JUNCTION            101.60      9.40       0.0
  10309E               JUNCTION            101.60      9.40       0.0
  15009                JUNCTION            111.50     13.50       0.0
  15009A               JUNCTION            111.50     13.50       0.0
  15009B               JUNCTION            111.50     13.50       0.0
  15009C               JUNCTION            111.50     13.50       0.0
  15009D               JUNCTION            111.50     13.50       0.0
  15009E               JUNCTION            121.00     13.50       0.0
  16009                JUNCTION            102.00     18.00       0.0
  16009A               JUNCTION            102.00     18.00       0.0
  16009B               JUNCTION            102.00     18.00       0.0
  16009C               JUNCTION            102.00     18.00       0.0
  16009D               JUNCTION            102.00     18.00       0.0
  16009E               JUNCTION            102.00     18.00       0.0
  16109                JUNCTION            102.80     22.20       0.0
  16109A               JUNCTION            102.80     22.20       0.0
  16109B               JUNCTION            102.80     22.20       0.0
  16109C               JUNCTION            102.80     22.20       0.0
  16109D               JUNCTION            102.80     22.20       0.0
  16109E               JUNCTION            102.80     22.20       0.0
  80408                JUNCTION            120.00     13.40       0.0    Yes
  80408A               JUNCTION            124.60     13.40       0.0    Yes
  80408B               JUNCTION            124.60     13.40       0.0    Yes
  80408C               JUNCTION            124.60      4.00       0.0    Yes
  80408D               JUNCTION            124.60     13.40       0.0    Yes
  80608                JUNCTION            118.30     16.70       0.0
  80608A               JUNCTION            118.30     16.70       0.0
  80608B               JUNCTION            118.30     16.70       0.0
  80608C               JUNCTION            118.30     16.70       0.0
  80608D               JUNCTION            118.30     16.70       0.0
  81009                JUNCTION            128.20      8.80       0.0    Yes
  81009A               JUNCTION            128.20      8.80       0.0    Yes
  81009B               JUNCTION            128.20      8.80       0.0    Yes
  81009C               JUNCTION            128.20      8.80       0.0    Yes
  81009D               JUNCTION            128.20      8.80       0.0    Yes
  81009E               JUNCTION            128.20      8.80       0.0    Yes
  81309                JUNCTION            117.50     12.50       0.0
  81309A               JUNCTION            117.50     12.50       0.0
  81309B               JUNCTION            117.50     12.50       0.0
  81309C               JUNCTION            117.50     12.50       0.0
  81309D               JUNCTION            117.50     12.50       0.0
  81309E               JUNCTION            117.50     12.50       0.0
  82308D               JUNCTION            112.30     42.70       0.0
  82309                JUNCTION            112.30     42.70       0.0    Yes
  82309A               JUNCTION            112.30     42.70       0.0    Yes
  82309B               JUNCTION            112.30     42.70       0.0    Yes
  82309C               JUNCTION            112.30     13.00       0.0    Yes
  10208                OUTFALL              89.90      9.00       0.0
  10208A               OUTFALL              89.90      9.00       0.0
  10208B               OUTFALL              89.90      9.00       0.0
  10208C               OUTFALL              89.90      9.00       0.0
  10208D               OUTFALL              89.90      9.00       0.0
  10208E               OUTFALL              89.90      9.00       0.0
  Tank1_1              STORAGE             112.30     42.70       0.0    Yes
  Tank2_1              STORAGE             112.30     21.00       0.0    Yes
  Tank3_1              STORAGE             118.30     16.70       0.0
  Tank4_1              STORAGE             124.60     13.40       0.0    Yes
  
  
  ************
  Link Summary
  ************
  Name             From Node        To Node          Type            Length    %Slope Roughness
  ---------------------------------------------------------------------------------------------
  1030             10309            10208            CONDUIT         4500.0    0.2600    0.2000
  1030A            10309A           10208A           CONDUIT         4500.0    0.2600    0.0160
  1030B            10309B           10208B           CONDUIT         4500.0    0.2600    0.0160
  1030C            10309C           10208C           CONDUIT         4500.0    0.2600    0.0160
  1030D            10309D           10208D           CONDUIT         4500.0    0.2600    0.0160
  1030E            10309E           10208E           CONDUIT         4500.0    0.2600    0.0160
  1570             15009            16009            CONDUIT         5000.0    0.1900    0.0154
  1570A            15009A           16009A           CONDUIT         5000.0    0.1900    0.0154
  1570B            15009B           16009B           CONDUIT         5000.0    0.1900    0.0154
  1570C            15009C           16009C           CONDUIT           33.0   30.0604    0.0154
  1570D            15009D           16009D           CONDUIT         5000.0    0.1900    0.0154
  1570E            15009E           16009E           CONDUIT         5000.0    0.3800    0.0154
  1600             16009            16109            CONDUIT          500.0   -0.1600    0.0150
  1600A            16009A           16109A           CONDUIT          500.0   -0.1600    0.0150
  1600B            16009B           16109B           CONDUIT          500.0   -0.1600    0.0150
  1600C            16009C           16109C           CONDUIT          500.0   -0.1600    0.0150
  1600D            16009D           16109D           CONDUIT          500.0   -0.1600    0.0150
  1600E            16009E           16109E           CONDUIT          500.0   -0.1600    0.0150
  1602             82309            16109            CONDUIT         5000.0    0.1900    0.0340
  1602A            82309A           16109A           CONDUIT         5000.0    0.1900    0.0340
  1602B            82309B           16109B           CONDUIT         5000.0    0.1900    0.0340
  1602C            82309C           16109C           CONDUIT         5000.0    0.1900    0.0340
  1602D            Tank1_1          16109D           CONDUIT         5000.0    0.1900    0.0340
  1602E            Tank2_1          16109E           CONDUIT         5000.0    0.1900    0.0340
  1630             16009            10309            CONDUIT          300.0    0.1333    0.0150
  1630A            16009A           10309A           CONDUIT          300.0    0.1333    0.0150
  1630B            16009B           10309B           CONDUIT          300.0    0.1333    0.0150
  1630C            16009C           10309C           CONDUIT          300.0    0.1333    0.0150
  1630D            16009D           10309D           CONDUIT          300.0    0.1333    0.0150
  1630E            16009E           10309E           CONDUIT          300.0    0.1333    0.0150
  8040             80408            80608            CONDUIT         1800.0    0.0944    0.0150
  8040A            80408A           80608A           CONDUIT         1800.0    0.3500    0.0150
  8040B            80408B           80608B           CONDUIT         1800.0    0.3500    0.0150
  8040C            80408C           80608C           CONDUIT         1800.0    0.3500    0.0150
  8040D            80408D           80608D           CONDUIT         1800.0    0.3500    0.0150
  8040E            Tank4_1          Tank3_1          CONDUIT         1800.0    0.3500    0.0150
  8060             80608            82309            CONDUIT         2075.0    0.1831    0.0150
  8060A            80608A           82309A           CONDUIT         2075.0    0.1831    0.0150
  8060B            80608B           82309B           CONDUIT         2075.0    0.1831    0.0150
  8060C            80608C           82309C           CONDUIT         2075.0    0.1831    0.0150
  8060D            80608D           Tank1_1          CONDUIT         2075.0    0.1831    0.0150
  8060E            Tank3_1          Tank2_1          CONDUIT         2075.0    0.1831    0.0150
  8100             81009            81309            CONDUIT         5100.0    0.2098    0.0150
  8100A            81009A           81309A           CONDUIT         5100.0    0.2098    0.0150
  8100B            81009B           81309B           CONDUIT         5100.0    0.2098    0.0150
  8100C            81009C           81309C           CONDUIT         5100.0    0.2098    0.0150
  8100D            81009D           81309D           CONDUIT         5100.0    0.2098    0.0150
  8100E            81009E           81309E           CONDUIT         5100.0    0.2098    0.0150
  8130             81309            15009            CONDUIT         3500.0    0.1714    0.0150
  8130A            81309A           15009A           CONDUIT         3500.0    0.1714    0.0150
  8130B            81309B           15009B           CONDUIT         3500.0    0.1714    0.0150
  8130C            81309C           15009C           CONDUIT         3500.0    0.1714    0.0150
  8130D            81309D           15009D           CONDUIT         3500.0    0.1714    0.0150
  8130E            81309E           15009E           CONDUIT         3500.0   -0.1000    0.0150
  L1_1             Tank2_1          15009E           TYPE3 PUMP  
  L2_1             Tank2_1          15009E           TYPE3 PUMP  
  L3_1             Tank2_1          15009E           TYPE3 PUMP  
  L4_1             Tank2_1          15009E           TYPE3 PUMP  
  OR1@82309B-15009B 82309B           15009B           ORIFICE     
  OR1@82309D-82308D Tank1_1          82308D           ORIFICE     
  WEIR1@82309C-15009C 82309C           15009C           WEIR        
  
  
  *********************
  Cross Section Summary
  *********************
                                        Full     Full     Hyd.     Max.   No. of     Full
  Conduit          Shape               Depth     Area     Rad.    Width  Barrels     Flow
  ---------------------------------------------------------------------------------------
  1030             TRIANGULAR           9.00   243.00     4.27    54.00        1 163046.83
  1030A            TRIANGULAR           9.00   243.00     4.27    54.00        1 2038085.32
  1030B            TRIANGULAR           9.00   243.00     4.27    54.00        1 2038085.32
  1030C            TRIANGULAR           9.00   243.00     4.27    54.00        1 2038085.32
  1030D            TRIANGULAR           9.00   243.00     4.27    54.00        1 2038085.32
  1030E            TRIANGULAR           9.00   243.00     4.27    54.00        1 2038085.32
  1570             CIRCULAR             5.50    23.76     1.38     5.50        1 83157.17
  1570A            CIRCULAR             5.50    23.76     1.38     5.50        1 83157.17
  1570B            CIRCULAR             5.50    23.76     1.38     5.50        1 83157.17
  1570C            CIRCULAR             5.50    23.76     1.38     5.50        1 1045972.08
  1570D            CIRCULAR             5.50    23.76     1.38     5.50        1 83157.17
  1570E            FORCE_MAIN           5.50    23.76     1.38     5.50        1 139662.24
  1600             CIRCULAR             6.00    28.27     1.50     6.00        1 98805.64
  1600A            CIRCULAR             6.00    28.27     1.50     6.00        1 98805.64
  1600B            CIRCULAR             6.00    28.27     1.50     6.00        1 98805.64
  1600C            CIRCULAR             6.00    28.27     1.50     6.00        1 98805.64
  1600D            CIRCULAR             6.00    28.27     1.50     6.00        1 98805.64
  1600E            CIRCULAR             6.00    28.27     1.50     6.00        1 98805.64
  1602             CIRCULAR             5.00    19.63     1.25     5.00        1 29211.98
  1602A            CIRCULAR             5.00    19.63     1.25     5.00        1 29211.98
  1602B            CIRCULAR             5.00    19.63     1.25     5.00        1 29211.98
  1602C            CIRCULAR             5.00    19.63     1.25     5.00        1 29211.98
  1602D            CIRCULAR             5.00    19.63     1.25     5.00        1 29211.98
  1602E            CIRCULAR             5.00    19.63     1.25     5.00        1 29211.98
  1630             TRIANGULAR           9.00   243.00     4.27    54.00        1 1556801.49
  1630A            TRIANGULAR           9.00   243.00     4.27    54.00        1 1556801.49
  1630B            TRIANGULAR           9.00   243.00     4.27    54.00        1 1556801.49
  1630C            TRIANGULAR           9.00   243.00     4.27    54.00        1 1556801.49
  1630D            TRIANGULAR           9.00   243.00     4.27    54.00        1 1556801.49
  1630E            TRIANGULAR           9.00   243.00     4.27    54.00        1 1556801.49
  8040             FORCE_MAIN           4.00    12.57     1.00     4.00        1 28865.93
  8040A            CIRCULAR             4.00    12.57     1.00     4.00        1 49565.57
  8040B            CIRCULAR             4.00    12.57     1.00     4.00        1 49565.57
  8040C            CIRCULAR             4.00    12.57     1.00     4.00        1 49565.57
  8040D            CIRCULAR             4.00    12.57     1.00     4.00        1 49565.57
  8040E            CIRCULAR             4.00    12.57     1.00     4.00        1 49565.57
  8060             CIRCULAR             4.00    12.57     1.00     4.00        1 35853.20
  8060A            CIRCULAR             4.00    12.57     1.00     4.00        1 35853.20
  8060B            CIRCULAR             4.00    12.57     1.00     4.00        1 35853.20
  8060C            CIRCULAR             4.00    12.57     1.00     4.00        1 35853.20
  8060D            CIRCULAR             4.00    12.57     1.00     4.00        1 35853.20
  8060E            CIRCULAR             4.00    12.57     1.00     4.00        1 35853.20
  8100             CIRCULAR             4.50    15.90     1.12     4.50        1 52536.21
  8100A            CIRCULAR             4.50    15.90     1.12     4.50        1 52536.21
  8100B            CIRCULAR             4.50    15.90     1.12     4.50        1 52536.21
  8100C            CIRCULAR             4.50    15.90     1.12     4.50        1 52536.21
  8100D            CIRCULAR             4.50    15.90     1.12     4.50        1 52536.21
  8100E            CIRCULAR             4.50    15.90     1.12     4.50        1 52536.21
  8130             CIRCULAR             4.50    15.90     1.12     4.50        1 47489.04
  8130A            CIRCULAR             4.50    15.90     1.12     4.50        1 47489.04
  8130B            CIRCULAR             4.50    15.90     1.12     4.50        1 47489.04
  8130C            CIRCULAR             4.50    15.90     1.12     4.50        1 47489.04
  8130D            CIRCULAR             4.50    15.90     1.12     4.50        1 47489.04
  8130E            CIRCULAR             4.50    15.90     1.12     4.50        1 36270.34
  
  
  ****************
  Analysis Options
  ****************
  Flow Units ............... LPS
  Process Models:
    Rainfall/Runoff ........ NO
    RDII ................... NO
    Snowmelt ............... NO
    Groundwater ............ NO
    Flow Routing ........... YES
    Ponding Allowed ........ NO
    Water Quality .......... YES
  Flow Routing Method ...... DYNWAVE
  Surcharge Method ......... EXTRAN
  Starting Date ............ 01/01/1988 00:00:00
  Ending Date .............. 01/01/1988 06:00:00
  Antecedent Dry Days ...... 5.0
  Report Time Step ......... 00:01:00
  Routing Time Step ........ 10.00 sec
  Variable Time Step ....... YES
  Maximum Trials ........... 8
  Number of Threads ........ 1
  Head Tolerance ........... 0.001000 m
  
  
  *********************
  Control Actions Taken
  *********************
   01/01/1988: 00:00:00 Link L3_1 setting changed to   0.00 by Control 3
   01/01/1988: 00:57:01 Link L1_1 setting changed to   0.00 by Control 1
   01/01/1988: 00:57:01 Link L2_1 setting changed to   0.00 by Control 2
   01/01/1988: 00:57:09 Link L1_1 setting changed to   0.00 by Control 1
   01/01/1988: 00:57:09 Link L2_1 setting changed to   0.00 by Control 2
   01/01/1988: 00:57:17 Link L1_1 setting changed to   0.00 by Control 1
   01/01/1988: 00:57:17 Link L2_1 setting changed to   0.00 by Control 2
   01/01/1988: 00:57:25 Link L1_1 setting changed to   0.00 by Control 1
   01/01/1988: 00:57:25 Link L2_1 setting changed to   0.00 by Control 2
   01/01/1988: 00:57:33 Link L1_1 setting changed to   0.00 by Control 1
   01/01/1988: 00:57:33 Link L2_1 setting changed to   0.00 by Control 2
   01/01/1988: 00:57:41 Link L1_1 setting changed to   0.00 by Control 1
   01/01/1988: 00:57:41 Link L2_1 setting changed to   0.00 by Control 2
   01/01/1988: 00:57:49 Link L1_1 setting changed to   0.00 by Control 1
   01/01/1988: 00:57:49 Link L2_1 setting changed to   0.00 by Control 2
   01/01/1988: 00:57:57 Link L1_1 setting changed to   0.00 by Control 1
   01/01/1988: 00:57:57 Link L2_1 setting changed to   0.00 by Control 2
   01/01/1988: 00:58:05 Link L1_1 setting changed to   0.00 by Control 1
   01/01/1988: 00:58:05 Link L2_1 setting changed to   0.00 by Control 2
   01/01/1988: 00:58:12 Link L1_1 setting changed to   0.00 by Control 1
   01/01/1988: 00:58:12 Link L2_1 setting changed to   0.00 by Control 2
   01/01/1988: 00:58:20 Link L1_1 setting changed to   0.00 by Control 1
   01/01/1988: 00:58:20 Link L2_1 setting changed to   0.00 by Control 2
   01/01/1988: 00:58:28 Link L1_1 setting changed to   0.00 by Control 1
   01/01/1988: 00:58:28 Link L2_1 setting changed to   0.00 by Control 2
   01/01/1988: 00:58:36 Link L1_1 setting changed to   0.00 by Control 1
   01/01/1988: 00:58:36 Link L2_1 setting changed to   0.00 by Control 2
   01/01/1988: 00:58:44 Link L1_1 setting changed to   0.00 by Control 1
   01/01/1988: 00:58:44 Link L2_1 setting changed to   0.00 by Control 2
   01/01/1988: 00:58:52 Link L1_1 setting changed to   0.00 by Control 1
   01/01/1988: 00:58:52 Link L2_1 setting changed to   0.00 by Control 2
   01/01/1988: 00:59:00 Link L1_1 setting changed to   0.00 by Control 1
   01/01/1988: 00:59:00 Link L2_1 setting changed to   0.00 by Control 2
   01/01/1988: 00:59:08 Link L1_1 setting changed to   0.00 by Control 1
   01/01/1988: 00:59:08 Link L2_1 setting changed to   0.00 by Control 2
   01/01/1988: 00:59:15 Link L1_1 setting changed to   0.00 by Control 1
   01/01/1988: 00:59:15 Link L2_1 setting changed to   0.00 by Control 2
   01/01/1988: 00:59:23 Link L1_1 setting changed to   0.00 by Control 1
   01/01/1988: 00:59:23 Link L2_1 setting changed to   0.00 by Control 2
   01/01/1988: 00:59:31 Link L1_1 setting changed to   0.00 by Control 1
   01/01/1988: 00:59:31 Link L2_1 setting changed to   0.00 by Control 2
   01/01/1988: 00:59:39 Link L1_1 setting changed to   0.00 by Control 1
   01/01/1988: 00:59:39 Link L2_1 setting changed to   0.00 by Control 2
   01/01/1988: 00:59:46 Link L1_1 setting changed to   0.00 by Control 1
   01/01/1988: 00:59:46 Link L2_1 setting changed to   0.00 by Control 2
   01/01/1988: 00:59:54 Link L1_1 setting changed to   0.00 by Control 1
   01/01/1988: 00:59:54 Link L2_1 setting changed to   0.00 by Control 2
   01/01/1988: 01:00:02 Link L1_1 setting changed to   0.00 by Control 1
   01/01/1988: 01:00:02 Link L2_1 setting changed to   0.00 by Control 2
   01/01/1988: 01:00:10 Link L1_1 setting changed to   0.00 by Control 1
   01/01/1988: 01:00:10 Link L2_1 setting changed to   0.00 by Control 2
   01/01/1988: 01:00:17 Link L1_1 setting changed to   0.00 by Control 1
   01/01/1988: 01:00:17 Link L2_1 setting changed to   0.00 by Control 2
   01/01/1988: 01:00:25 Link L1_1 setting changed to   0.00 by Control 1
   01/01/1988: 01:00:25 Link L2_1 setting changed to   0.00 by Control 2
   01/01/1988: 01:00:33 Link L1_1 setting changed to   0.00 by Control 1
   01/01/1988: 01:00:33 Link L2_1 setting changed to   0.00 by Control 2
   01/01/1988: 01:00:40 Link L1_1 setting changed to   0.00 by Control 1
   01/01/1988: 01:00:40 Link L2_1 setting changed to   0.00 by Control 2
   01/01/1988: 01:00:48 Link L1_1 setting changed to   0.00 by Control 1
   01/01/1988: 01:00:48 Link L2_1 setting changed to   0.00 by Control 2
   01/01/1988: 01:00:56 Link L1_1 setting changed to   0.00 by Control 1
   01/01/1988: 01:00:56 Link L2_1 setting changed to   0.00 by Control 2
   01/01/1988: 01:01:03 Link L1_1 setting changed to   0.00 by Control 1
   01/01/1988: 01:01:03 Link L2_1 setting changed to   0.00 by Control 2
   01/01/1988: 01:01:11 Link L1_1 setting changed to   0.00 by Control 1
   01/01/1988: 01:01:11 Link L2_1 setting changed to   0.00 by Control 2
   01/01/1988: 01:01:19 Link L1_1 setting changed to   0.00 by Control 1
   01/01/1988: 01:01:19 Link L2_1 setting changed to   0.00 by Control 2
   01/01/1988: 01:01:26 Link L1_1 setting changed to   0.00 by Control 1
   01/01/1988: 01:01:26 Link L2_1 setting changed to   0.00 by Control 2
   01/01/1988: 01:01:34 Link L1_1 setting changed to   0.00 by Control 1
   01/01/1988: 01:01:34 Link L2_1 setting changed to   0.00 by Control 2
   01/01/1988: 01:01:41 Link L1_1 setting changed to   0.00 by Control 1
   01/01/1988: 01:01:41 Link L2_1 setting changed to   0.00 by Control 2
   01/01/1988: 01:01:49 Link L1_1 setting changed to   0.00 by Control 1
   01/01/1988: 01:01:49 Link L2_1 setting changed to   0.00 by Control 2
   01/01/1988: 01:01:57 Link L1_1 setting changed to   0.00 by Control 1
   01/01/1988: 01:01:57 Link L2_1 setting changed to   0.00 by Control 2
   01/01/1988: 01:02:04 Link L1_1 setting changed to   0.00 by Control 1
   01/01/1988: 01:02:04 Link L2_1 setting changed to   0.00 by Control 2
   01/01/1988: 01:02:12 Link L1_1 setting changed to   0.00 by Control 1
   01/01/1988: 01:02:12 Link L2_1 setting changed to   0.00 by Control 2
   01/01/1988: 01:02:19 Link L1_1 setting changed to   0.00 by Control 1
   01/01/1988: 01:02:19 Link L2_1 setting changed to   0.00 by Control 2
   01/01/1988: 01:02:27 Link L1_1 setting changed to   0.00 by Control 1
   01/01/1988: 01:02:27 Link L2_1 setting changed to   0.00 by Control 2
   01/01/1988: 01:02:34 Link L1_1 setting changed to   0.00 by Control 1
   01/01/1988: 01:02:34 Link L2_1 setting changed to   0.00 by Control 2
   01/01/1988: 01:02:42 Link L1_1 setting changed to   0.00 by Control 1
   01/01/1988: 01:02:42 Link L2_1 setting changed to   0.00 by Control 2
   01/01/1988: 01:02:49 Link L1_1 setting changed to   0.00 by Control 1
   01/01/1988: 01:02:49 Link L2_1 setting changed to   0.00 by Control 2
   01/01/1988: 01:02:57 Link L1_1 setting changed to   0.00 by Control 1
   01/01/1988: 01:02:57 Link L2_1 setting changed to   0.00 by Control 2
   01/01/1988: 01:03:04 Link L1_1 setting changed to   0.00 by Control 1
   01/01/1988: 01:03:04 Link L2_1 setting changed to   0.00 by Control 2
   01/01/1988: 01:03:12 Link L1_1 setting changed to   0.00 by Control 1
   01/01/1988: 01:03:12 Link L2_1 setting changed to   0.00 by Control 2
   01/01/1988: 01:03:19 Link L1_1 setting changed to   0.00 by Control 1
   01/01/1988: 01:03:19 Link L2_1 setting changed to   0.00 by Control 2
   01/01/1988: 01:03:27 Link L1_1 setting changed to   0.00 by Control 1
   01/01/1988: 01:03:27 Link L2_1 setting changed to   0.00 by Control 2
   01/01/1988: 01:03:34 Link L1_1 setting changed to   0.00 by Control 1
   01/01/1988: 01:03:34 Link L2_1 setting changed to   0.00 by Control 2
   01/01/1988: 01:03:41 Link L1_1 setting changed to   0.00 by Control 1
   01/01/1988: 01:03:41 Link L2_1 setting changed to   0.00 by Control 2
   01/01/1988: 01:03:49 Link L1_1 setting changed to   0.00 by Control 1
   01/01/1988: 01:03:49 Link L2_1 setting changed to   0.00 by Control 2
   01/01/1988: 01:03:56 Link L1_1 setting changed to   0.00 by Control 1
   01/01/1988: 01:03:56 Link L2_1 setting changed to   0.00 by Control 2
   01/01/1988: 01:04:04 Link L1_1 setting changed to   0.00 by Control 1
   01/01/1988: 01:04:04 Link L2_1 setting changed to   0.00 by Control 2
   01/01/1988: 01:04:11 Link L1_1 setting changed to   0.00 by Control 1
   01/01/1988: 01:04:11 Link L2_1 setting changed to   0.00 by Control 2
   01/01/1988: 01:04:18 Link L1_1 setting changed to   0.00 by Control 1
   01/01/1988: 01:04:18 Link L2_1 setting changed to   0.00 by Control 2
   01/01/1988: 01:04:26 Link L1_1 setting changed to   0.00 by Control 1
   01/01/1988: 01:04:26 Link L2_1 setting changed to   0.00 by Control 2
   01/01/1988: 01:04:33 Link L1_1 setting changed to   0.00 by Control 1
   01/01/1988: 01:04:33 Link L2_1 setting changed to   0.00 by Control 2
   01/01/1988: 01:04:40 Link L1_1 setting changed to   0.00 by Control 1
   01/01/1988: 01:04:40 Link L2_1 setting changed to   0.00 by Control 2
   01/01/1988: 01:04:48 Link L1_1 setting changed to   0.00 by Control 1
   01/01/1988: 01:04:48 Link L2_1 setting changed to   0.00 by Control 2
   01/01/1988: 01:04:55 Link L1_1 setting changed to   0.00 by Control 1
   01/01/1988: 01:04:55 Link L2_1 setting changed to   0.00 by Control 2
   01/01/1988: 01:05:02 Link L1_1 setting changed to   0.00 by Control 1
   01/01/1988: 01:05:02 Link L2_1 setting changed to   0.00 by Control 2
   01/01/1988: 01:05:10 Link L1_1 setting changed to   0.00 by Control 1
   01/01/1988: 01:05:10 Link L2_1 setting changed to   0.00 by Control 2
   01/01/1988: 01:05:17 Link L1_1 setting changed to   0.00 by Control 1
   01/01/1988: 01:05:17 Link L2_1 setting changed to   0.00 by Control 2
   01/01/1988: 01:05:24 Link L1_1 setting changed to   0.00 by Control 1
   01/01/1988: 01:05:24 Link L2_1 setting changed to   0.00 by Control 2
   01/01/1988: 01:05:32 Link L1_1 setting changed to   0.00 by Control 1
   01/01/1988: 01:05:32 Link L2_1 setting changed to   0.00 by Control 2
   01/01/1988: 01:05:39 Link L1_1 setting changed to   0.00 by Control 1
   01/01/1988: 01:05:39 Link L2_1 setting changed to   0.00 by Control 2
   01/01/1988: 01:05:46 Link L1_1 setting changed to   0.00 by Control 1
   01/01/1988: 01:05:46 Link L2_1 setting changed to   0.00 by Control 2
   01/01/1988: 01:05:53 Link L1_1 setting changed to   0.00 by Control 1
   01/01/1988: 01:05:53 Link L2_1 setting changed to   0.00 by Control 2
   01/01/1988: 01:06:01 Link L1_1 setting changed to   0.00 by Control 1
   01/01/1988: 01:06:01 Link L2_1 setting changed to   0.00 by Control 2
   01/01/1988: 01:06:08 Link L1_1 setting changed to   0.00 by Control 1
   01/01/1988: 01:06:08 Link L2_1 setting changed to   0.00 by Control 2
   01/01/1988: 01:06:15 Link L1_1 setting changed to   0.00 by Control 1
   01/01/1988: 01:06:15 Link L2_1 setting changed to   0.00 by Control 2
   01/01/1988: 01:06:22 Link L1_1 setting changed to   0.00 by Control 1
   01/01/1988: 01:06:22 Link L2_1 setting changed to   0.00 by Control 2
   01/01/1988: 01:06:30 Link L1_1 setting changed to   0.00 by Control 1
   01/01/1988: 01:06:30 Link L2_1 setting changed to   0.00 by Control 2
   01/01/1988: 01:06:37 Link L1_1 setting changed to   0.00 by Control 1
   01/01/1988: 01:06:37 Link L2_1 setting changed to   0.00 by Control 2
   01/01/1988: 01:06:44 Link L1_1 setting changed to   0.00 by Control 1
   01/01/1988: 01:06:44 Link L2_1 setting changed to   0.00 by Control 2
   01/01/1988: 01:06:51 Link L1_1 setting changed to   0.00 by Control 1
   01/01/1988: 01:06:51 Link L2_1 setting changed to   0.00 by Control 2
   01/01/1988: 01:06:58 Link L1_1 setting changed to   0.00 by Control 1
   01/01/1988: 01:06:58 Link L2_1 setting changed to   0.00 by Control 2
   01/01/1988: 01:07:06 Link L1_1 setting changed to   0.00 by Control 1
   01/01/1988: 01:07:06 Link L2_1 setting changed to   0.00 by Control 2
   01/01/1988: 01:07:13 Link L1_1 setting changed to   0.00 by Control 1
   01/01/1988: 01:07:13 Link L2_1 setting changed to   0.00 by Control 2
   01/01/1988: 01:07:20 Link L1_1 setting changed to   0.00 by Control 1
   01/01/1988: 01:07:20 Link L2_1 setting changed to   0.00 by Control 2
   01/01/1988: 01:07:27 Link L1_1 setting changed to   0.00 by Control 1
   01/01/1988: 01:07:27 Link L2_1 setting changed to   0.00 by Control 2
   01/01/1988: 01:07:34 Link L1_1 setting changed to   0.00 by Control 1
   01/01/1988: 01:07:34 Link L2_1 setting changed to   0.00 by Control 2
   01/01/1988: 01:07:42 Link L1_1 setting changed to   0.00 by Control 1
   01/01/1988: 01:07:42 Link L2_1 setting changed to   0.00 by Control 2
   01/01/1988: 01:07:49 Link L1_1 setting changed to   0.00 by Control 1
   01/01/1988: 01:07:49 Link L2_1 setting changed to   0.00 by Control 2
   01/01/1988: 01:07:56 Link L1_1 setting changed to   0.00 by Control 1
   01/01/1988: 01:07:56 Link L2_1 setting changed to   0.00 by Control 2
   01/01/1988: 01:08:03 Link L1_1 setting changed to   0.00 by Control 1
   01/01/1988: 01:08:03 Link L2_1 setting changed to   0.00 by Control 2
   01/01/1988: 01:08:10 Link L1_1 setting changed to   0.00 by Control 1
   01/01/1988: 01:08:10 Link L2_1 setting changed to   0.00 by Control 2
   01/01/1988: 01:08:17 Link L1_1 setting changed to   0.00 by Control 1
   01/01/1988: 01:08:17 Link L2_1 setting changed to   0.00 by Control 2
   01/01/1988: 01:08:24 Link L1_1 setting changed to   0.00 by Control 1
   01/01/1988: 01:08:24 Link L2_1 setting changed to   0.00 by Control 2
   01/01/1988: 01:08:31 Link L1_1 setting changed to   0.00 by Control 1
   01/01/1988: 01:08:31 Link L2_1 setting changed to   0.00 by Control 2
   01/01/1988: 01:08:39 Link L1_1 setting changed to   0.00 by Control 1
   01/01/1988: 01:08:39 Link L2_1 setting changed to   0.00 by Control 2
   01/01/1988: 01:08:46 Link L1_1 setting changed to   0.00 by Control 1
   01/01/1988: 01:08:46 Link L2_1 setting changed to   0.00 by Control 2
   01/01/1988: 01:08:53 Link L1_1 setting changed to   0.00 by Control 1
   01/01/1988: 01:08:53 Link L2_1 setting changed to   0.00 by Control 2
   01/01/1988: 01:09:00 Link L1_1 setting changed to   0.00 by Control 1
   01/01/1988: 01:09:00 Link L2_1 setting changed to   0.00 by Control 2
   01/01/1988: 01:09:07 Link L1_1 setting changed to   0.00 by Control 1
   01/01/1988: 01:09:07 Link L2_1 setting changed to   0.00 by Control 2
   01/01/1988: 01:09:14 Link L1_1 setting changed to   0.00 by Control 1
   01/01/1988: 01:09:14 Link L2_1 setting changed to   0.00 by Control 2
   01/01/1988: 01:09:21 Link L1_1 setting changed to   0.00 by Control 1
   01/01/1988: 01:09:21 Link L2_1 setting changed to   0.00 by Control 2
   01/01/1988: 01:09:28 Link L1_1 setting changed to   0.00 by Control 1
   01/01/1988: 01:09:28 Link L2_1 setting changed to   0.00 by Control 2
   01/01/1988: 01:09:35 Link L1_1 setting changed to   0.00 by Control 1
   01/01/1988: 01:09:35 Link L2_1 setting changed to   0.00 by Control 2
   01/01/1988: 01:09:42 Link L1_1 setting changed to   0.00 by Control 1
   01/01/1988: 01:09:42 Link L2_1 setting changed to   0.00 by Control 2
   01/01/1988: 01:09:49 Link L1_1 setting changed to   0.00 by Control 1
   01/01/1988: 01:09:49 Link L2_1 setting changed to   0.00 by Control 2
   01/01/1988: 01:09:56 Link L1_1 setting changed to   0.00 by Control 1
   01/01/1988: 01:09:56 Link L2_1 setting changed to   0.00 by Control 2
   01/01/1988: 01:10:03 Link L1_1 setting changed to   0.00 by Control 1
   01/01/1988: 01:10:03 Link L2_1 setting changed to   0.00 by Control 2
   01/01/1988: 01:10:10 Link L1_1 setting changed to   0.00 by Control 1
   01/01/1988: 01:10:10 Link L2_1 setting changed to   0.00 by Control 2
   01/01/1988: 01:10:17 Link L1_1 setting changed to   0.00 by Control 1
   01/01/1988: 01:10:17 Link L2_1 setting changed to   0.00 by Control 2
   01/01/1988: 01:10:24 Link L1_1 setting changed to   0.00 by Control 1
   01/01/1988: 01:10:24 Link L2_1 setting changed to   0.00 by Control 2
   01/01/1988: 01:10:31 Link L1_1 setting changed to   0.00 by Control 1
   01/01/1988: 01:10:31 Link L2_1 setting changed to   0.00 by Control 2
   01/01/1988: 01:10:38 Link L1_1 setting changed to   0.00 by Control 1
   01/01/1988: 01:10:38 Link L2_1 setting changed to   0.00 by Control 2
   01/01/1988: 01:10:45 Link L1_1 setting changed to   0.00 by Control 1
   01/01/1988: 01:10:45 Link L2_1 setting changed to   0.00 by Control 2
   01/01/1988: 01:10:52 Link L1_1 setting changed to   0.00 by Control 1
   01/01/1988: 01:10:52 Link L2_1 setting changed to   0.00 by Control 2
   01/01/1988: 01:10:59 Link L1_1 setting changed to   0.00 by Control 1
   01/01/1988: 01:10:59 Link L2_1 setting changed to   0.00 by Control 2
   01/01/1988: 01:11:06 Link L1_1 setting changed to   0.00 by Control 1
   01/01/1988: 01:11:06 Link L2_1 setting changed to   0.00 by Control 2
   01/01/1988: 01:11:13 Link L1_1 setting changed to   0.00 by Control 1
   01/01/1988: 01:11:13 Link L2_1 setting changed to   0.00 by Control 2
   01/01/1988: 01:11:20 Link L1_1 setting changed to   0.00 by Control 1
   01/01/1988: 01:11:20 Link L2_1 setting changed to   0.00 by Control 2
   01/01/1988: 01:11:27 Link L1_1 setting changed to   0.00 by Control 1
   01/01/1988: 01:11:27 Link L2_1 setting changed to   0.00 by Control 2
   01/01/1988: 01:11:34 Link L1_1 setting changed to   0.00 by Control 1
   01/01/1988: 01:11:34 Link L2_1 setting changed to   0.00 by Control 2
   01/01/1988: 01:11:41 Link L1_1 setting changed to   0.00 by Control 1
   01/01/1988: 01:11:41 Link L2_1 setting changed to   0.00 by Control 2
   01/01/1988: 01:11:48 Link L1_1 setting changed to   0.00 by Control 1
   01/01/1988: 01:11:48 Link L2_1 setting changed to   0.00 by Control 2
   01/01/1988: 01:11:55 Link L1_1 setting changed to   0.00 by Control 1
   01/01/1988: 01:11:55 Link L2_1 setting changed to   0.00 by Control 2
   01/01/1988: 01:12:02 Link L1_1 setting changed to   0.00 by Control 1
   01/01/1988: 01:12:02 Link L2_1 setting changed to   0.00 by Control 2
   01/01/1988: 01:12:09 Link L1_1 setting changed to   0.00 by Control 1
   01/01/1988: 01:12:09 Link L2_1 setting changed to   0.00 by Control 2
   01/01/1988: 01:12:16 Link L1_1 setting changed to   0.00 by Control 1
   01/01/1988: 01:12:16 Link L2_1 setting changed to   0.00 by Control 2
   01/01/1988: 01:12:23 Link L1_1 setting changed to   0.00 by Control 1
   01/01/1988: 01:12:23 Link L2_1 setting changed to   0.00 by Control 2
   01/01/1988: 01:12:30 Link L1_1 setting changed to   0.00 by Control 1
   01/01/1988: 01:12:30 Link L2_1 setting changed to   0.00 by Control 2
   01/01/1988: 01:12:37 Link L1_1 setting changed to   0.00 by Control 1
   01/01/1988: 01:12:37 Link L2_1 setting changed to   0.00 by Control 2
   01/01/1988: 01:12:44 Link L1_1 setting changed to   0.00 by Control 1
   01/01/1988: 01:12:44 Link L2_1 setting changed to   0.00 by Control 2
   01/01/1988: 01:12:51 Link L1_1 setting changed to   0.00 by Control 1
   01/01/1988: 01:12:51 Link L2_1 setting changed to   0.00 by Control 2
   01/01/1988: 01:12:57 Link L1_1 setting changed to   0.00 by Control 1
   01/01/1988: 01:12:57 Link L2_1 setting changed to   0.00 by Control 2
   01/01/1988: 01:13:04 Link L1_1 setting changed to   0.00 by Control 1
   01/01/1988: 01:13:04 Link L2_1 setting changed to   0.00 by Control 2
   01/01/1988: 01:13:11 Link L1_1 setting changed to   0.00 by Control 1
   01/01/1988: 01:13:11 Link L2_1 setting changed to   0.00 by Control 2
   01/01/1988: 01:13:18 Link L1_1 setting changed to   0.00 by Control 1
   01/01/1988: 01:13:18 Link L2_1 setting changed to   0.00 by Control 2
   01/01/1988: 01:13:25 Link L1_1 setting changed to   0.00 by Control 1
   01/01/1988: 01:13:25 Link L2_1 setting changed to   0.00 by Control 2
   01/01/1988: 01:13:32 Link L1_1 setting changed to   0.00 by Control 1
   01/01/1988: 01:13:32 Link L2_1 setting changed to   0.00 by Control 2
   01/01/1988: 01:13:39 Link L1_1 setting changed to   0.00 by Control 1
   01/01/1988: 01:13:39 Link L2_1 setting changed to   0.00 by Control 2
   01/01/1988: 01:13:46 Link L1_1 setting changed to   0.00 by Control 1
   01/01/1988: 01:13:46 Link L2_1 setting changed to   0.00 by Control 2
   01/01/1988: 01:13:53 Link L1_1 setting changed to   0.00 by Control 1
   01/01/1988: 01:13:53 Link L2_1 setting changed to   0.00 by Control 2
   01/01/1988: 01:14:00 Link L1_1 setting changed to   0.00 by Control 1
   01/01/1988: 01:14:00 Link L2_1 setting changed to   0.00 by Control 2
   01/01/1988: 01:14:06 Link L1_1 setting changed to   0.00 by Control 1
   01/01/1988: 01:14:06 Link L2_1 setting changed to   0.00 by Control 2
   01/01/1988: 01:14:13 Link L1_1 setting changed to   0.00 by Control 1
   01/01/1988: 01:14:13 Link L2_1 setting changed to   0.00 by Control 2
   01/01/1988: 01:14:20 Link L1_1 setting changed to   0.00 by Control 1
   01/01/1988: 01:14:20 Link L2_1 setting changed to   0.00 by Control 2
   01/01/1988: 01:14:27 Link L1_1 setting changed to   0.00 by Control 1
   01/01/1988: 01:14:27 Link L2_1 setting changed to   0.00 by Control 2
   01/01/1988: 01:14:34 Link L1_1 setting changed to   0.00 by Control 1
   01/01/1988: 01:14:34 Link L2_1 setting changed to   0.00 by Control 2
   01/01/1988: 01:14:41 Link L1_1 setting changed to   0.00 by Control 1
   01/01/1988: 01:14:41 Link L2_1 setting changed to   0.00 by Control 2
   01/01/1988: 01:14:48 Link L1_1 setting changed to   0.00 by Control 1
   01/01/1988: 01:14:48 Link L2_1 setting changed to   0.00 by Control 2
   01/01/1988: 01:14:54 Link L1_1 setting changed to   0.00 by Control 1
   01/01/1988: 01:14:54 Link L2_1 setting changed to   0.00 by Control 2
   01/01/1988: 01:15:01 Link L1_1 setting changed to   0.00 by Control 1
   01/01/1988: 01:15:01 Link L2_1 setting changed to   0.00 by Control 2
   01/01/1988: 01:15:08 Link L1_1 setting changed to   0.00 by Control 1
   01/01/1988: 01:15:08 Link L2_1 setting changed to   0.00 by Control 2
   01/01/1988: 01:15:15 Link L1_1 setting changed to   0.00 by Control 1
   01/01/1988: 01:15:15 Link L2_1 setting changed to   0.00 by Control 2
   01/01/1988: 01:15:22 Link L1_1 setting changed to   0.00 by Control 1
   01/01/1988: 01:15:22 Link L2_1 setting changed to   0.00 by Control 2
   01/01/1988: 01:15:29 Link L1_1 setting changed to   0.00 by Control 1
   01/01/1988: 01:15:29 Link L2_1 setting changed to   0.00 by Control 2
   01/01/1988: 01:15:35 Link L1_1 setting changed to   0.00 by Control 1
   01/01/1988: 01:15:35 Link L2_1 setting changed to   0.00 by Control 2
   01/01/1988: 01:15:42 Link L1_1 setting changed to   0.00 by Control 1
   01/01/1988: 01:15:42 Link L2_1 setting changed to   0.00 by Control 2
   01/01/1988: 01:15:49 Link L1_1 setting changed to   0.00 by Control 1
   01/01/1988: 01:15:49 Link L2_1 setting changed to   0.00 by Control 2
   01/01/1988: 01:15:56 Link L1_1 setting changed to   0.00 by Control 1
   01/01/1988: 01:15:56 Link L2_1 setting changed to   0.00 by Control 2
   01/01/1988: 01:16:03 Link L1_1 setting changed to   0.00 by Control 1
   01/01/1988: 01:16:03 Link L2_1 setting changed to   0.00 by Control 2
   01/01/1988: 01:16:09 Link L1_1 setting changed to   0.00 by Control 1
   01/01/1988: 01:16:09 Link L2_1 setting changed to   0.00 by Control 2
   01/01/1988: 01:16:16 Link L1_1 setting changed to   0.00 by Control 1
   01/01/1988: 01:16:16 Link L2_1 setting changed to   0.00 by Control 2
   01/01/1988: 01:16:23 Link L1_1 setting changed to   0.00 by Control 1
   01/01/1988: 01:16:23 Link L2_1 setting changed to   0.00 by Control 2
   01/01/1988: 01:16:30 Link L1_1 setting changed to   0.00 by Control 1
   01/01/1988: 01:16:30 Link L2_1 setting changed to   0.00 by Control 2
   01/01/1988: 01:16:37 Link L1_1 setting changed to   0.00 by Control 1
   01/01/1988: 01:16:37 Link L2_1 setting changed to   0.00 by Control 2
   01/01/1988: 01:16:43 Link L1_1 setting changed to   0.00 by Control 1
   01/01/1988: 01:16:43 Link L2_1 setting changed to   0.00 by Control 2
   01/01/1988: 01:16:50 Link L1_1 setting changed to   0.00 by Control 1
   01/01/1988: 01:16:50 Link L2_1 setting changed to   0.00 by Control 2
   01/01/1988: 01:16:57 Link L1_1 setting changed to   0.00 by Control 1
   01/01/1988: 01:16:57 Link L2_1 setting changed to   0.00 by Control 2
   01/01/1988: 01:17:04 Link L1_1 setting changed to   0.00 by Control 1
   01/01/1988: 01:17:04 Link L2_1 setting changed to   0.00 by Control 2
   01/01/1988: 01:17:11 Link L1_1 setting changed to   0.00 by Control 1
   01/01/1988: 01:17:11 Link L2_1 setting changed to   0.00 by Control 2
   01/01/1988: 01:17:17 Link L1_1 setting changed to   0.00 by Control 1
   01/01/1988: 01:17:17 Link L2_1 setting changed to   0.00 by Control 2
   01/01/1988: 01:17:24 Link L1_1 setting changed to   0.00 by Control 1
   01/01/1988: 01:17:24 Link L2_1 setting changed to   0.00 by Control 2
   01/01/1988: 01:17:31 Link L1_1 setting changed to   0.00 by Control 1
   01/01/1988: 01:17:31 Link L2_1 setting changed to   0.00 by Control 2
   01/01/1988: 01:17:38 Link L1_1 setting changed to   0.00 by Control 1
   01/01/1988: 01:17:38 Link L2_1 setting changed to   0.00 by Control 2
   01/01/1988: 01:17:44 Link L1_1 setting changed to   0.00 by Control 1
   01/01/1988: 01:17:44 Link L2_1 setting changed to   0.00 by Control 2
   01/01/1988: 01:17:51 Link L1_1 setting changed to   0.00 by Control 1
   01/01/1988: 01:17:51 Link L2_1 setting changed to   0.00 by Control 2
   01/01/1988: 01:17:58 Link L1_1 setting changed to   0.00 by Control 1
   01/01/1988: 01:17:58 Link L2_1 setting changed to   0.00 by Control 2
   01/01/1988: 01:18:05 Link L1_1 setting changed to   0.00 by Control 1
   01/01/1988: 01:18:05 Link L2_1 setting changed to   0.00 by Control 2
   01/01/1988: 01:18:12 Link L1_1 setting changed to   0.00 by Control 1
   01/01/1988: 01:18:12 Link L2_1 setting changed to   0.00 by Control 2
   01/01/1988: 01:18:18 Link L1_1 setting changed to   0.00 by Control 1
   01/01/1988: 01:18:18 Link L2_1 setting changed to   0.00 by Control 2
   01/01/1988: 01:18:25 Link L1_1 setting changed to   0.00 by Control 1
   01/01/1988: 01:18:25 Link L2_1 setting changed to   0.00 by Control 2
   01/01/1988: 01:18:32 Link L1_1 setting changed to   0.00 by Control 1
   01/01/1988: 01:18:32 Link L2_1 setting changed to   0.00 by Control 2
   01/01/1988: 01:18:39 Link L1_1 setting changed to   0.00 by Control 1
   01/01/1988: 01:18:39 Link L2_1 setting changed to   0.00 by Control 2
   01/01/1988: 01:18:45 Link L1_1 setting changed to   0.00 by Control 1
   01/01/1988: 01:18:45 Link L2_1 setting changed to   0.00 by Control 2
   01/01/1988: 01:18:52 Link L1_1 setting changed to   0.00 by Control 1
   01/01/1988: 01:18:52 Link L2_1 setting changed to   0.00 by Control 2
   01/01/1988: 01:18:59 Link L1_1 setting changed to   0.00 by Control 1
   01/01/1988: 01:18:59 Link L2_1 setting changed to   0.00 by Control 2
   01/01/1988: 01:19:05 Link L1_1 setting changed to   0.00 by Control 1
   01/01/1988: 01:19:05 Link L2_1 setting changed to   0.00 by Control 2
   01/01/1988: 01:19:12 Link L1_1 setting changed to   0.00 by Control 1
   01/01/1988: 01:19:12 Link L2_1 setting changed to   0.00 by Control 2
   01/01/1988: 01:19:19 Link L1_1 setting changed to   0.00 by Control 1
   01/01/1988: 01:19:19 Link L2_1 setting changed to   0.00 by Control 2
   01/01/1988: 01:19:26 Link L1_1 setting changed to   0.00 by Control 1
   01/01/1988: 01:19:26 Link L2_1 setting changed to   0.00 by Control 2
   01/01/1988: 01:19:32 Link L1_1 setting changed to   0.00 by Control 1
   01/01/1988: 01:19:32 Link L2_1 setting changed to   0.00 by Control 2
   01/01/1988: 01:19:39 Link L1_1 setting changed to   0.00 by Control 1
   01/01/1988: 01:19:39 Link L2_1 setting changed to   0.00 by Control 2
   01/01/1988: 01:19:46 Link L1_1 setting changed to   0.00 by Control 1
   01/01/1988: 01:19:46 Link L2_1 setting changed to   0.00 by Control 2
   01/01/1988: 01:19:52 Link L1_1 setting changed to   0.00 by Control 1
   01/01/1988: 01:19:52 Link L2_1 setting changed to   0.00 by Control 2
   01/01/1988: 01:19:59 Link L1_1 setting changed to   0.00 by Control 1
   01/01/1988: 01:19:59 Link L2_1 setting changed to   0.00 by Control 2
   01/01/1988: 01:20:06 Link L1_1 setting changed to   0.00 by Control 1
   01/01/1988: 01:20:06 Link L2_1 setting changed to   0.00 by Control 2
   01/01/1988: 01:20:13 Link L1_1 setting changed to   0.00 by Control 1
   01/01/1988: 01:20:13 Link L2_1 setting changed to   0.00 by Control 2
   01/01/1988: 01:20:19 Link L1_1 setting changed to   0.00 by Control 1
   01/01/1988: 01:20:19 Link L2_1 setting changed to   0.00 by Control 2
   01/01/1988: 01:20:26 Link L1_1 setting changed to   0.00 by Control 1
   01/01/1988: 01:20:26 Link L2_1 setting changed to   0.00 by Control 2
   01/01/1988: 01:20:33 Link L1_1 setting changed to   0.00 by Control 1
   01/01/1988: 01:20:33 Link L2_1 setting changed to   0.00 by Control 2
   01/01/1988: 01:20:39 Link L1_1 setting changed to   0.00 by Control 1
   01/01/1988: 01:20:39 Link L2_1 setting changed to   0.00 by Control 2
   01/01/1988: 01:20:46 Link L1_1 setting changed to   0.00 by Control 1
   01/01/1988: 01:20:46 Link L2_1 setting changed to   0.00 by Control 2
   01/01/1988: 01:20:53 Link L1_1 setting changed to   0.00 by Control 1
   01/01/1988: 01:20:53 Link L2_1 setting changed to   0.00 by Control 2
   01/01/1988: 01:20:59 Link L1_1 setting changed to   0.00 by Control 1
   01/01/1988: 01:20:59 Link L2_1 setting changed to   0.00 by Control 2
   01/01/1988: 01:21:06 Link L1_1 setting changed to   0.00 by Control 1
   01/01/1988: 01:21:06 Link L2_1 setting changed to   0.00 by Control 2
   01/01/1988: 01:21:13 Link L1_1 setting changed to   0.00 by Control 1
   01/01/1988: 01:21:13 Link L2_1 setting changed to   0.00 by Control 2
   01/01/1988: 01:21:19 Link L1_1 setting changed to   0.00 by Control 1
   01/01/1988: 01:21:19 Link L2_1 setting changed to   0.00 by Control 2
   01/01/1988: 01:21:26 Link L1_1 setting changed to   0.00 by Control 1
   01/01/1988: 01:21:26 Link L2_1 setting changed to   0.00 by Control 2
   01/01/1988: 01:21:33 Link L1_1 setting changed to   0.00 by Control 1
   01/01/1988: 01:21:33 Link L2_1 setting changed to   0.00 by Control 2
   01/01/1988: 01:21:39 Link L1_1 setting changed to   0.00 by Control 1
   01/01/1988: 01:21:39 Link L2_1 setting changed to   0.00 by Control 2
   01/01/1988: 01:21:46 Link L1_1 setting changed to   0.00 by Control 1
   01/01/1988: 01:21:46 Link L2_1 setting changed to   0.00 by Control 2
   01/01/1988: 01:21:53 Link L1_1 setting changed to   0.00 by Control 1
   01/01/1988: 01:21:53 Link L2_1 setting changed to   0.00 by Control 2
   01/01/1988: 01:21:59 Link L1_1 setting changed to   0.00 by Control 1
   01/01/1988: 01:21:59 Link L2_1 setting changed to   0.00 by Control 2
   01/01/1988: 01:22:06 Link L1_1 setting changed to   0.00 by Control 1
   01/01/1988: 01:22:06 Link L2_1 setting changed to   0.00 by Control 2
   01/01/1988: 01:22:13 Link L1_1 setting changed to   0.00 by Control 1
   01/01/1988: 01:22:13 Link L2_1 setting changed to   0.00 by Control 2
   01/01/1988: 01:22:19 Link L1_1 setting changed to   0.00 by Control 1
   01/01/1988: 01:22:19 Link L2_1 setting changed to   0.00 by Control 2
   01/01/1988: 01:22:26 Link L1_1 setting changed to   0.00 by Control 1
   01/01/1988: 01:22:26 Link L2_1 setting changed to   0.00 by Control 2
   01/01/1988: 01:22:33 Link L1_1 setting changed to   0.00 by Control 1
   01/01/1988: 01:22:33 Link L2_1 setting changed to   0.00 by Control 2
   01/01/1988: 01:22:39 Link L1_1 setting changed to   0.00 by Control 1
   01/01/1988: 01:22:39 Link L2_1 setting changed to   0.00 by Control 2
   01/01/1988: 01:22:46 Link L1_1 setting changed to   0.00 by Control 1
   01/01/1988: 01:22:46 Link L2_1 setting changed to   0.00 by Control 2
   01/01/1988: 01:22:53 Link L1_1 setting changed to   0.00 by Control 1
   01/01/1988: 01:22:53 Link L2_1 setting changed to   0.00 by Control 2
   01/01/1988: 01:22:59 Link L1_1 setting changed to   0.00 by Control 1
   01/01/1988: 01:22:59 Link L2_1 setting changed to   0.00 by Control 2
   01/01/1988: 01:23:06 Link L1_1 setting changed to   0.00 by Control 1
   01/01/1988: 01:23:06 Link L2_1 setting changed to   0.00 by Control 2
   01/01/1988: 01:23:12 Link L1_1 setting changed to   0.00 by Control 1
   01/01/1988: 01:23:12 Link L2_1 setting changed to   0.00 by Control 2
   01/01/1988: 01:23:19 Link L1_1 setting changed to   0.00 by Control 1
   01/01/1988: 01:23:19 Link L2_1 setting changed to   0.00 by Control 2
   01/01/1988: 01:23:26 Link L1_1 setting changed to   0.00 by Control 1
   01/01/1988: 01:23:26 Link L2_1 setting changed to   0.00 by Control 2
   01/01/1988: 01:23:32 Link L1_1 setting changed to   0.00 by Control 1
   01/01/1988: 01:23:32 Link L2_1 setting changed to   0.00 by Control 2
   01/01/1988: 01:23:39 Link L1_1 setting changed to   0.00 by Control 1
   01/01/1988: 01:23:39 Link L2_1 setting changed to   0.00 by Control 2
   01/01/1988: 01:23:46 Link L1_1 setting changed to   0.00 by Control 1
   01/01/1988: 01:23:46 Link L2_1 setting changed to   0.00 by Control 2
   01/01/1988: 01:23:52 Link L1_1 setting changed to   0.00 by Control 1
   01/01/1988: 01:23:52 Link L2_1 setting changed to   0.00 by Control 2
   01/01/1988: 01:23:59 Link L1_1 setting changed to   0.00 by Control 1
   01/01/1988: 01:23:59 Link L2_1 setting changed to   0.00 by Control 2
   01/01/1988: 01:24:05 Link L1_1 setting changed to   0.00 by Control 1
   01/01/1988: 01:24:05 Link L2_1 setting changed to   0.00 by Control 2
   01/01/1988: 01:24:12 Link L1_1 setting changed to   0.00 by Control 1
   01/01/1988: 01:24:12 Link L2_1 setting changed to   0.00 by Control 2
   01/01/1988: 01:24:19 Link L1_1 setting changed to   0.00 by Control 1
   01/01/1988: 01:24:19 Link L2_1 setting changed to   0.00 by Control 2
   01/01/1988: 01:24:25 Link L1_1 setting changed to   0.00 by Control 1
   01/01/1988: 01:24:25 Link L2_1 setting changed to   0.00 by Control 2
   01/01/1988: 01:24:32 Link L1_1 setting changed to   0.00 by Control 1
   01/01/1988: 01:24:32 Link L2_1 setting changed to   0.00 by Control 2
   01/01/1988: 01:24:38 Link L1_1 setting changed to   0.00 by Control 1
   01/01/1988: 01:24:38 Link L2_1 setting changed to   0.00 by Control 2
   01/01/1988: 01:24:45 Link L1_1 setting changed to   0.00 by Control 1
   01/01/1988: 01:24:45 Link L2_1 setting changed to   0.00 by Control 2
   01/01/1988: 01:24:52 Link L1_1 setting changed to   0.00 by Control 1
   01/01/1988: 01:24:52 Link L2_1 setting changed to   0.00 by Control 2
   01/01/1988: 01:24:58 Link L1_1 setting changed to   0.00 by Control 1
   01/01/1988: 01:24:58 Link L2_1 setting changed to   0.00 by Control 2
   01/01/1988: 01:25:05 Link L1_1 setting changed to   0.00 by Control 1
   01/01/1988: 01:25:05 Link L2_1 setting changed to   0.00 by Control 2
   01/01/1988: 01:25:11 Link L1_1 setting changed to   0.00 by Control 1
   01/01/1988: 01:25:11 Link L2_1 setting changed to   0.00 by Control 2
   01/01/1988: 01:25:18 Link L1_1 setting changed to   0.00 by Control 1
   01/01/1988: 01:25:18 Link L2_1 setting changed to   0.00 by Control 2
   01/01/1988: 01:25:25 Link L1_1 setting changed to   0.00 by Control 1
   01/01/1988: 01:25:25 Link L2_1 setting changed to   0.00 by Control 2
   01/01/1988: 01:25:31 Link L1_1 setting changed to   0.00 by Control 1
   01/01/1988: 01:25:31 Link L2_1 setting changed to   0.00 by Control 2
   01/01/1988: 01:25:38 Link L1_1 setting changed to   0.00 by Control 1
   01/01/1988: 01:25:38 Link L2_1 setting changed to   0.00 by Control 2
   01/01/1988: 01:25:44 Link L1_1 setting changed to   0.00 by Control 1
   01/01/1988: 01:25:44 Link L2_1 setting changed to   0.00 by Control 2
   01/01/1988: 01:25:51 Link L1_1 setting changed to   0.00 by Control 1
   01/01/1988: 01:25:51 Link L2_1 setting changed to   0.00 by Control 2
   01/01/1988: 01:25:57 Link L1_1 setting changed to   0.00 by Control 1
   01/01/1988: 01:25:57 Link L2_1 setting changed to   0.00 by Control 2
   01/01/1988: 01:26:04 Link L1_1 setting changed to   0.00 by Control 1
   01/01/1988: 01:26:04 Link L2_1 setting changed to   0.00 by Control 2
   01/01/1988: 01:26:11 Link L1_1 setting changed to   0.00 by Control 1
   01/01/1988: 01:26:11 Link L2_1 setting changed to   0.00 by Control 2
   01/01/1988: 01:26:17 Link L1_1 setting changed to   0.00 by Control 1
   01/01/1988: 01:26:17 Link L2_1 setting changed to   0.00 by Control 2
   01/01/1988: 01:26:24 Link L1_1 setting changed to   0.00 by Control 1
   01/01/1988: 01:26:24 Link L2_1 setting changed to   0.00 by Control 2
   01/01/1988: 01:26:30 Link L1_1 setting changed to   0.00 by Control 1
   01/01/1988: 01:26:30 Link L2_1 setting changed to   0.00 by Control 2
   01/01/1988: 01:26:37 Link L1_1 setting changed to   0.00 by Control 1
   01/01/1988: 01:26:37 Link L2_1 setting changed to   0.00 by Control 2
   01/01/1988: 01:26:43 Link L1_1 setting changed to   0.00 by Control 1
   01/01/1988: 01:26:43 Link L2_1 setting changed to   0.00 by Control 2
   01/01/1988: 01:26:50 Link L1_1 setting changed to   0.00 by Control 1
   01/01/1988: 01:26:50 Link L2_1 setting changed to   0.00 by Control 2
   01/01/1988: 01:26:56 Link L1_1 setting changed to   0.00 by Control 1
   01/01/1988: 01:26:56 Link L2_1 setting changed to   0.00 by Control 2
   01/01/1988: 01:27:03 Link L1_1 setting changed to   0.00 by Control 1
   01/01/1988: 01:27:03 Link L2_1 setting changed to   0.00 by Control 2
   01/01/1988: 01:27:10 Link L1_1 setting changed to   0.00 by Control 1
   01/01/1988: 01:27:10 Link L2_1 setting changed to   0.00 by Control 2
   01/01/1988: 01:27:16 Link L1_1 setting changed to   0.00 by Control 1
   01/01/1988: 01:27:16 Link L2_1 setting changed to   0.00 by Control 2
   01/01/1988: 01:27:23 Link L1_1 setting changed to   0.00 by Control 1
   01/01/1988: 01:27:23 Link L2_1 setting changed to   0.00 by Control 2
   01/01/1988: 01:27:29 Link L1_1 setting changed to   0.00 by Control 1
   01/01/1988: 01:27:29 Link L2_1 setting changed to   0.00 by Control 2
   01/01/1988: 01:27:36 Link L1_1 setting changed to   0.00 by Control 1
   01/01/1988: 01:27:36 Link L2_1 setting changed to   0.00 by Control 2
   01/01/1988: 01:27:42 Link L1_1 setting changed to   0.00 by Control 1
   01/01/1988: 01:27:42 Link L2_1 setting changed to   0.00 by Control 2
   01/01/1988: 01:27:49 Link L1_1 setting changed to   0.00 by Control 1
   01/01/1988: 01:27:49 Link L2_1 setting changed to   0.00 by Control 2
   01/01/1988: 01:27:55 Link L1_1 setting changed to   0.00 by Control 1
   01/01/1988: 01:27:55 Link L2_1 setting changed to   0.00 by Control 2
   01/01/1988: 01:28:02 Link L1_1 setting changed to   0.00 by Control 1
   01/01/1988: 01:28:02 Link L2_1 setting changed to   0.00 by Control 2
   01/01/1988: 01:28:08 Link L1_1 setting changed to   0.00 by Control 1
   01/01/1988: 01:28:08 Link L2_1 setting changed to   0.00 by Control 2
   01/01/1988: 01:28:15 Link L1_1 setting changed to   0.00 by Control 1
   01/01/1988: 01:28:15 Link L2_1 setting changed to   0.00 by Control 2
   01/01/1988: 01:28:21 Link L1_1 setting changed to   0.00 by Control 1
   01/01/1988: 01:28:21 Link L2_1 setting changed to   0.00 by Control 2
   01/01/1988: 01:28:28 Link L1_1 setting changed to   0.00 by Control 1
   01/01/1988: 01:28:28 Link L2_1 setting changed to   0.00 by Control 2
   01/01/1988: 01:28:34 Link L1_1 setting changed to   0.00 by Control 1
   01/01/1988: 01:28:34 Link L2_1 setting changed to   0.00 by Control 2
   01/01/1988: 01:28:41 Link L1_1 setting changed to   0.00 by Control 1
   01/01/1988: 01:28:41 Link L2_1 setting changed to   0.00 by Control 2
   01/01/1988: 01:28:48 Link L1_1 setting changed to   0.00 by Control 1
   01/01/1988: 01:28:48 Link L2_1 setting changed to   0.00 by Control 2
   01/01/1988: 01:28:54 Link L1_1 setting changed to   0.00 by Control 1
   01/01/1988: 01:28:54 Link L2_1 setting changed to   0.00 by Control 2
   01/01/1988: 01:29:01 Link L1_1 setting changed to   0.00 by Control 1
   01/01/1988: 01:29:01 Link L2_1 setting changed to   0.00 by Control 2
   01/01/1988: 01:29:07 Link L1_1 setting changed to   0.00 by Control 1
   01/01/1988: 01:29:07 Link L2_1 setting changed to   0.00 by Control 2
   01/01/1988: 01:29:14 Link L1_1 setting changed to   0.00 by Control 1
   01/01/1988: 01:29:14 Link L2_1 setting changed to   0.00 by Control 2
   01/01/1988: 01:29:20 Link L1_1 setting changed to   0.00 by Control 1
   01/01/1988: 01:29:20 Link L2_1 setting changed to   0.00 by Control 2
   01/01/1988: 01:29:27 Link L1_1 setting changed to   0.00 by Control 1
   01/01/1988: 01:29:27 Link L2_1 setting changed to   0.00 by Control 2
   01/01/1988: 01:29:33 Link L1_1 setting changed to   0.00 by Control 1
   01/01/1988: 01:29:33 Link L2_1 setting changed to   0.00 by Control 2
   01/01/1988: 01:29:40 Link L1_1 setting changed to   0.00 by Control 1
   01/01/1988: 01:29:40 Link L2_1 setting changed to   0.00 by Control 2
   01/01/1988: 01:29:46 Link L1_1 setting changed to   0.00 by Control 1
   01/01/1988: 01:29:46 Link L2_1 setting changed to   0.00 by Control 2
   01/01/1988: 01:29:53 Link L1_1 setting changed to   0.00 by Control 1
   01/01/1988: 01:29:53 Link L2_1 setting changed to   0.00 by Control 2
   01/01/1988: 01:29:59 Link L1_1 setting changed to   0.00 by Control 1
   01/01/1988: 01:29:59 Link L2_1 setting changed to   0.00 by Control 2
   01/01/1988: 01:30:06 Link L1_1 setting changed to   0.00 by Control 1
   01/01/1988: 01:30:06 Link L2_1 setting changed to   0.00 by Control 2
   01/01/1988: 01:30:12 Link L1_1 setting changed to   0.00 by Control 1
   01/01/1988: 01:30:12 Link L2_1 setting changed to   0.00 by Control 2
   01/01/1988: 01:30:19 Link L1_1 setting changed to   0.00 by Control 1
   01/01/1988: 01:30:19 Link L2_1 setting changed to   0.00 by Control 2
   01/01/1988: 01:30:25 Link L1_1 setting changed to   0.00 by Control 1
   01/01/1988: 01:30:25 Link L2_1 setting changed to   0.00 by Control 2
   01/01/1988: 01:30:32 Link L1_1 setting changed to   0.00 by Control 1
   01/01/1988: 01:30:32 Link L2_1 setting changed to   0.00 by Control 2
   01/01/1988: 01:30:38 Link L1_1 setting changed to   0.00 by Control 1
   01/01/1988: 01:30:38 Link L2_1 setting changed to   0.00 by Control 2
   01/01/1988: 01:30:45 Link L1_1 setting changed to   0.00 by Control 1
   01/01/1988: 01:30:45 Link L2_1 setting changed to   0.00 by Control 2
   01/01/1988: 01:30:51 Link L1_1 setting changed to   0.00 by Control 1
   01/01/1988: 01:30:51 Link L2_1 setting changed to   0.00 by Control 2
   01/01/1988: 01:30:58 Link L1_1 setting changed to   0.00 by Control 1
   01/01/1988: 01:30:58 Link L2_1 setting changed to   0.00 by Control 2
   01/01/1988: 01:31:04 Link L1_1 setting changed to   0.00 by Control 1
   01/01/1988: 01:31:04 Link L2_1 setting changed to   0.00 by Control 2
   01/01/1988: 01:31:10 Link L1_1 setting changed to   0.00 by Control 1
   01/01/1988: 01:31:10 Link L2_1 setting changed to   0.00 by Control 2
   01/01/1988: 01:31:17 Link L1_1 setting changed to   0.00 by Control 1
   01/01/1988: 01:31:17 Link L2_1 setting changed to   0.00 by Control 2
   01/01/1988: 01:31:23 Link L1_1 setting changed to   0.00 by Control 1
   01/01/1988: 01:31:23 Link L2_1 setting changed to   0.00 by Control 2
   01/01/1988: 01:31:30 Link L1_1 setting changed to   0.00 by Control 1
   01/01/1988: 01:31:30 Link L2_1 setting changed to   0.00 by Control 2
   01/01/1988: 01:31:36 Link L1_1 setting changed to   0.00 by Control 1
   01/01/1988: 01:31:36 Link L2_1 setting changed to   0.00 by Control 2
   01/01/1988: 01:31:43 Link L1_1 setting changed to   0.00 by Control 1
   01/01/1988: 01:31:43 Link L2_1 setting changed to   0.00 by Control 2
   01/01/1988: 01:31:49 Link L1_1 setting changed to   0.00 by Control 1
   01/01/1988: 01:31:49 Link L2_1 setting changed to   0.00 by Control 2
   01/01/1988: 01:31:56 Link L1_1 setting changed to   0.00 by Control 1
   01/01/1988: 01:31:56 Link L2_1 setting changed to   0.00 by Control 2
   01/01/1988: 01:32:02 Link L1_1 setting changed to   0.00 by Control 1
   01/01/1988: 01:32:02 Link L2_1 setting changed to   0.00 by Control 2
   01/01/1988: 01:32:09 Link L1_1 setting changed to   0.00 by Control 1
   01/01/1988: 01:32:09 Link L2_1 setting changed to   0.00 by Control 2
   01/01/1988: 01:32:15 Link L1_1 setting changed to   0.00 by Control 1
   01/01/1988: 01:32:15 Link L2_1 setting changed to   0.00 by Control 2
   01/01/1988: 01:32:22 Link L1_1 setting changed to   0.00 by Control 1
   01/01/1988: 01:32:22 Link L2_1 setting changed to   0.00 by Control 2
   01/01/1988: 01:32:28 Link L1_1 setting changed to   0.00 by Control 1
   01/01/1988: 01:32:28 Link L2_1 setting changed to   0.00 by Control 2
   01/01/1988: 01:32:35 Link L1_1 setting changed to   0.00 by Control 1
   01/01/1988: 01:32:35 Link L2_1 setting changed to   0.00 by Control 2
   01/01/1988: 01:32:41 Link L1_1 setting changed to   0.00 by Control 1
   01/01/1988: 01:32:41 Link L2_1 setting changed to   0.00 by Control 2
   01/01/1988: 01:32:48 Link L1_1 setting changed to   0.00 by Control 1
   01/01/1988: 01:32:48 Link L2_1 setting changed to   0.00 by Control 2
   01/01/1988: 01:32:54 Link L1_1 setting changed to   0.00 by Control 1
   01/01/1988: 01:32:54 Link L2_1 setting changed to   0.00 by Control 2
   01/01/1988: 01:33:00 Link L1_1 setting changed to   0.00 by Control 1
   01/01/1988: 01:33:00 Link L2_1 setting changed to   0.00 by Control 2
   01/01/1988: 01:33:07 Link L1_1 setting changed to   0.00 by Control 1
   01/01/1988: 01:33:07 Link L2_1 setting changed to   0.00 by Control 2
   01/01/1988: 01:33:13 Link L1_1 setting changed to   0.00 by Control 1
   01/01/1988: 01:33:13 Link L2_1 setting changed to   0.00 by Control 2
   01/01/1988: 01:33:20 Link L1_1 setting changed to   0.00 by Control 1
   01/01/1988: 01:33:20 Link L2_1 setting changed to   0.00 by Control 2
   01/01/1988: 01:33:26 Link L1_1 setting changed to   0.00 by Control 1
   01/01/1988: 01:33:26 Link L2_1 setting changed to   0.00 by Control 2
   01/01/1988: 01:33:33 Link L1_1 setting changed to   0.00 by Control 1
   01/01/1988: 01:33:33 Link L2_1 setting changed to   0.00 by Control 2
   01/01/1988: 01:33:39 Link L1_1 setting changed to   0.00 by Control 1
   01/01/1988: 01:33:39 Link L2_1 setting changed to   0.00 by Control 2
   01/01/1988: 01:33:46 Link L1_1 setting changed to   0.00 by Control 1
   01/01/1988: 01:33:46 Link L2_1 setting changed to   0.00 by Control 2
   01/01/1988: 01:33:52 Link L1_1 setting changed to   0.00 by Control 1
   01/01/1988: 01:33:52 Link L2_1 setting changed to   0.00 by Control 2
   01/01/1988: 01:33:59 Link L1_1 setting changed to   0.00 by Control 1
   01/01/1988: 01:33:59 Link L2_1 setting changed to   0.00 by Control 2
   01/01/1988: 01:34:05 Link L1_1 setting changed to   0.00 by Control 1
   01/01/1988: 01:34:05 Link L2_1 setting changed to   0.00 by Control 2
   01/01/1988: 01:34:11 Link L1_1 setting changed to   0.00 by Control 1
   01/01/1988: 01:34:11 Link L2_1 setting changed to   0.00 by Control 2
   01/01/1988: 01:34:18 Link L1_1 setting changed to   0.00 by Control 1
   01/01/1988: 01:34:18 Link L2_1 setting changed to   0.00 by Control 2
   01/01/1988: 01:34:24 Link L1_1 setting changed to   0.00 by Control 1
   01/01/1988: 01:34:24 Link L2_1 setting changed to   0.00 by Control 2
   01/01/1988: 01:34:31 Link L1_1 setting changed to   0.00 by Control 1
   01/01/1988: 01:34:31 Link L2_1 setting changed to   0.00 by Control 2
   01/01/1988: 01:34:37 Link L1_1 setting changed to   0.00 by Control 1
   01/01/1988: 01:34:37 Link L2_1 setting changed to   0.00 by Control 2
   01/01/1988: 01:34:44 Link L1_1 setting changed to   0.00 by Control 1
   01/01/1988: 01:34:44 Link L2_1 setting changed to   0.00 by Control 2
   01/01/1988: 01:34:50 Link L1_1 setting changed to   0.00 by Control 1
   01/01/1988: 01:34:50 Link L2_1 setting changed to   0.00 by Control 2
   01/01/1988: 01:34:56 Link L1_1 setting changed to   0.00 by Control 1
   01/01/1988: 01:34:56 Link L2_1 setting changed to   0.00 by Control 2
   01/01/1988: 01:35:03 Link L1_1 setting changed to   0.00 by Control 1
   01/01/1988: 01:35:03 Link L2_1 setting changed to   0.00 by Control 2
   01/01/1988: 01:35:09 Link L1_1 setting changed to   0.00 by Control 1
   01/01/1988: 01:35:09 Link L2_1 setting changed to   0.00 by Control 2
   01/01/1988: 01:35:16 Link L1_1 setting changed to   0.00 by Control 1
   01/01/1988: 01:35:16 Link L2_1 setting changed to   0.00 by Control 2
   01/01/1988: 01:35:22 Link L1_1 setting changed to   0.00 by Control 1
   01/01/1988: 01:35:22 Link L2_1 setting changed to   0.00 by Control 2
   01/01/1988: 01:35:29 Link L1_1 setting changed to   0.00 by Control 1
   01/01/1988: 01:35:29 Link L2_1 setting changed to   0.00 by Control 2
   01/01/1988: 01:35:35 Link L1_1 setting changed to   0.00 by Control 1
   01/01/1988: 01:35:35 Link L2_1 setting changed to   0.00 by Control 2
   01/01/1988: 01:35:41 Link L1_1 setting changed to   0.00 by Control 1
   01/01/1988: 01:35:41 Link L2_1 setting changed to   0.00 by Control 2
   01/01/1988: 01:35:48 Link L1_1 setting changed to   0.00 by Control 1
   01/01/1988: 01:35:48 Link L2_1 setting changed to   0.00 by Control 2
   01/01/1988: 01:35:54 Link L1_1 setting changed to   0.00 by Control 1
   01/01/1988: 01:35:54 Link L2_1 setting changed to   0.00 by Control 2
   01/01/1988: 01:36:01 Link L1_1 setting changed to   0.00 by Control 1
   01/01/1988: 01:36:01 Link L2_1 setting changed to   0.00 by Control 2
   01/01/1988: 01:36:07 Link L1_1 setting changed to   0.00 by Control 1
   01/01/1988: 01:36:07 Link L2_1 setting changed to   0.00 by Control 2
   01/01/1988: 01:36:14 Link L1_1 setting changed to   0.00 by Control 1
   01/01/1988: 01:36:14 Link L2_1 setting changed to   0.00 by Control 2
   01/01/1988: 01:36:20 Link L1_1 setting changed to   0.00 by Control 1
   01/01/1988: 01:36:20 Link L2_1 setting changed to   0.00 by Control 2
   01/01/1988: 01:36:26 Link L1_1 setting changed to   0.00 by Control 1
   01/01/1988: 01:36:26 Link L2_1 setting changed to   0.00 by Control 2
   01/01/1988: 01:36:33 Link L1_1 setting changed to   0.00 by Control 1
   01/01/1988: 01:36:33 Link L2_1 setting changed to   0.00 by Control 2
   01/01/1988: 01:36:39 Link L1_1 setting changed to   0.00 by Control 1
   01/01/1988: 01:36:39 Link L2_1 setting changed to   0.00 by Control 2
   01/01/1988: 01:36:46 Link L1_1 setting changed to   0.00 by Control 1
   01/01/1988: 01:36:46 Link L2_1 setting changed to   0.00 by Control 2
   01/01/1988: 01:36:52 Link L1_1 setting changed to   0.00 by Control 1
   01/01/1988: 01:36:52 Link L2_1 setting changed to   0.00 by Control 2
   01/01/1988: 01:36:58 Link L1_1 setting changed to   0.00 by Control 1
   01/01/1988: 01:36:58 Link L2_1 setting changed to   0.00 by Control 2
   01/01/1988: 01:37:05 Link L1_1 setting changed to   0.00 by Control 1
   01/01/1988: 01:37:05 Link L2_1 setting changed to   0.00 by Control 2
   01/01/1988: 01:37:11 Link L1_1 setting changed to   0.00 by Control 1
   01/01/1988: 01:37:11 Link L2_1 setting changed to   0.00 by Control 2
   01/01/1988: 01:37:18 Link L1_1 setting changed to   0.00 by Control 1
   01/01/1988: 01:37:18 Link L2_1 setting changed to   0.00 by Control 2
   01/01/1988: 01:37:24 Link L1_1 setting changed to   0.00 by Control 1
   01/01/1988: 01:37:24 Link L2_1 setting changed to   0.00 by Control 2
   01/01/1988: 01:37:31 Link L1_1 setting changed to   0.00 by Control 1
   01/01/1988: 01:37:31 Link L2_1 setting changed to   0.00 by Control 2
   01/01/1988: 01:37:37 Link L1_1 setting changed to   0.00 by Control 1
   01/01/1988: 01:37:37 Link L2_1 setting changed to   0.00 by Control 2
   01/01/1988: 01:37:43 Link L1_1 setting changed to   0.00 by Control 1
   01/01/1988: 01:37:43 Link L2_1 setting changed to   0.00 by Control 2
   01/01/1988: 01:37:50 Link L1_1 setting changed to   0.00 by Control 1
   01/01/1988: 01:37:50 Link L2_1 setting changed to   0.00 by Control 2
   01/01/1988: 01:37:56 Link L1_1 setting changed to   0.00 by Control 1
   01/01/1988: 01:37:56 Link L2_1 setting changed to   0.00 by Control 2
   01/01/1988: 01:38:03 Link L1_1 setting changed to   0.00 by Control 1
   01/01/1988: 01:38:03 Link L2_1 setting changed to   0.00 by Control 2
   01/01/1988: 01:38:09 Link L1_1 setting changed to   0.00 by Control 1
   01/01/1988: 01:38:09 Link L2_1 setting changed to   0.00 by Control 2
   01/01/1988: 01:38:15 Link L1_1 setting changed to   0.00 by Control 1
   01/01/1988: 01:38:15 Link L2_1 setting changed to   0.00 by Control 2
   01/01/1988: 01:38:22 Link L1_1 setting changed to   0.00 by Control 1
   01/01/1988: 01:38:22 Link L2_1 setting changed to   0.00 by Control 2
   01/01/1988: 01:38:28 Link L1_1 setting changed to   0.00 by Control 1
   01/01/1988: 01:38:28 Link L2_1 setting changed to   0.00 by Control 2
   01/01/1988: 01:38:35 Link L1_1 setting changed to   0.00 by Control 1
   01/01/1988: 01:38:35 Link L2_1 setting changed to   0.00 by Control 2
   01/01/1988: 01:38:41 Link L1_1 setting changed to   0.00 by Control 1
   01/01/1988: 01:38:41 Link L2_1 setting changed to   0.00 by Control 2
   01/01/1988: 01:38:47 Link L1_1 setting changed to   0.00 by Control 1
   01/01/1988: 01:38:47 Link L2_1 setting changed to   0.00 by Control 2
   01/01/1988: 01:38:54 Link L1_1 setting changed to   0.00 by Control 1
   01/01/1988: 01:38:54 Link L2_1 setting changed to   0.00 by Control 2
   01/01/1988: 01:39:00 Link L1_1 setting changed to   0.00 by Control 1
   01/01/1988: 01:39:00 Link L2_1 setting changed to   0.00 by Control 2
   01/01/1988: 01:39:06 Link L1_1 setting changed to   0.00 by Control 1
   01/01/1988: 01:39:06 Link L2_1 setting changed to   0.00 by Control 2
   01/01/1988: 01:39:13 Link L1_1 setting changed to   0.00 by Control 1
   01/01/1988: 01:39:13 Link L2_1 setting changed to   0.00 by Control 2
   01/01/1988: 01:39:19 Link L1_1 setting changed to   0.00 by Control 1
   01/01/1988: 01:39:19 Link L2_1 setting changed to   0.00 by Control 2
   01/01/1988: 01:39:26 Link L1_1 setting changed to   0.00 by Control 1
   01/01/1988: 01:39:26 Link L2_1 setting changed to   0.00 by Control 2
   01/01/1988: 01:39:32 Link L1_1 setting changed to   0.00 by Control 1
   01/01/1988: 01:39:32 Link L2_1 setting changed to   0.00 by Control 2
   01/01/1988: 01:39:38 Link L1_1 setting changed to   0.00 by Control 1
   01/01/1988: 01:39:38 Link L2_1 setting changed to   0.00 by Control 2
   01/01/1988: 01:39:45 Link L1_1 setting changed to   0.00 by Control 1
   01/01/1988: 01:39:45 Link L2_1 setting changed to   0.00 by Control 2
   01/01/1988: 01:39:51 Link L1_1 setting changed to   0.00 by Control 1
   01/01/1988: 01:39:51 Link L2_1 setting changed to   0.00 by Control 2
   01/01/1988: 01:39:58 Link L1_1 setting changed to   0.00 by Control 1
   01/01/1988: 01:39:58 Link L2_1 setting changed to   0.00 by Control 2
   01/01/1988: 01:40:04 Link L1_1 setting changed to   0.00 by Control 1
   01/01/1988: 01:40:04 Link L2_1 setting changed to   0.00 by Control 2
   01/01/1988: 01:40:10 Link L1_1 setting changed to   0.00 by Control 1
   01/01/1988: 01:40:10 Link L2_1 setting changed to   0.00 by Control 2
   01/01/1988: 01:40:17 Link L1_1 setting changed to   0.00 by Control 1
   01/01/1988: 01:40:17 Link L2_1 setting changed to   0.00 by Control 2
   01/01/1988: 01:40:23 Link L1_1 setting changed to   0.00 by Control 1
   01/01/1988: 01:40:23 Link L2_1 setting changed to   0.00 by Control 2
   01/01/1988: 01:40:30 Link L1_1 setting changed to   0.00 by Control 1
   01/01/1988: 01:40:30 Link L2_1 setting changed to   0.00 by Control 2
   01/01/1988: 01:40:36 Link L1_1 setting changed to   0.00 by Control 1
   01/01/1988: 01:40:36 Link L2_1 setting changed to   0.00 by Control 2
   01/01/1988: 01:40:42 Link L1_1 setting changed to   0.00 by Control 1
   01/01/1988: 01:40:42 Link L2_1 setting changed to   0.00 by Control 2
   01/01/1988: 01:40:49 Link L1_1 setting changed to   0.00 by Control 1
   01/01/1988: 01:40:49 Link L2_1 setting changed to   0.00 by Control 2
   01/01/1988: 01:40:55 Link L1_1 setting changed to   0.00 by Control 1
   01/01/1988: 01:40:55 Link L2_1 setting changed to   0.00 by Control 2
   01/01/1988: 01:41:01 Link L1_1 setting changed to   0.00 by Control 1
   01/01/1988: 01:41:01 Link L2_1 setting changed to   0.00 by Control 2
   01/01/1988: 01:41:08 Link L1_1 setting changed to   0.00 by Control 1
   01/01/1988: 01:41:08 Link L2_1 setting changed to   0.00 by Control 2
   01/01/1988: 01:41:14 Link L1_1 setting changed to   0.00 by Control 1
   01/01/1988: 01:41:14 Link L2_1 setting changed to   0.00 by Control 2
   01/01/1988: 01:41:21 Link L1_1 setting changed to   0.00 by Control 1
   01/01/1988: 01:41:21 Link L2_1 setting changed to   0.00 by Control 2
   01/01/1988: 01:41:27 Link L1_1 setting changed to   0.00 by Control 1
   01/01/1988: 01:41:27 Link L2_1 setting changed to   0.00 by Control 2
   01/01/1988: 01:41:33 Link L1_1 setting changed to   0.00 by Control 1
   01/01/1988: 01:41:33 Link L2_1 setting changed to   0.00 by Control 2
   01/01/1988: 01:41:40 Link L1_1 setting changed to   0.00 by Control 1
   01/01/1988: 01:41:40 Link L2_1 setting changed to   0.00 by Control 2
   01/01/1988: 01:41:46 Link L1_1 setting changed to   0.00 by Control 1
   01/01/1988: 01:41:46 Link L2_1 setting changed to   0.00 by Control 2
   01/01/1988: 01:41:52 Link L1_1 setting changed to   0.00 by Control 1
   01/01/1988: 01:41:52 Link L2_1 setting changed to   0.00 by Control 2
   01/01/1988: 01:41:59 Link L1_1 setting changed to   0.00 by Control 1
   01/01/1988: 01:41:59 Link L2_1 setting changed to   0.00 by Control 2
   01/01/1988: 01:42:05 Link L1_1 setting changed to   0.00 by Control 1
   01/01/1988: 01:42:05 Link L2_1 setting changed to   0.00 by Control 2
   01/01/1988: 01:42:12 Link L1_1 setting changed to   0.00 by Control 1
   01/01/1988: 01:42:12 Link L2_1 setting changed to   0.00 by Control 2
   01/01/1988: 01:42:18 Link L1_1 setting changed to   0.00 by Control 1
   01/01/1988: 01:42:18 Link L2_1 setting changed to   0.00 by Control 2
   01/01/1988: 01:42:24 Link L1_1 setting changed to   0.00 by Control 1
   01/01/1988: 01:42:24 Link L2_1 setting changed to   0.00 by Control 2
   01/01/1988: 01:42:31 Link L1_1 setting changed to   0.00 by Control 1
   01/01/1988: 01:42:31 Link L2_1 setting changed to   0.00 by Control 2
   01/01/1988: 01:42:37 Link L1_1 setting changed to   0.00 by Control 1
   01/01/1988: 01:42:37 Link L2_1 setting changed to   0.00 by Control 2
   01/01/1988: 01:42:43 Link L1_1 setting changed to   0.00 by Control 1
   01/01/1988: 01:42:43 Link L2_1 setting changed to   0.00 by Control 2
   01/01/1988: 01:42:50 Link L1_1 setting changed to   0.00 by Control 1
   01/01/1988: 01:42:50 Link L2_1 setting changed to   0.00 by Control 2
   01/01/1988: 01:42:56 Link L1_1 setting changed to   0.00 by Control 1
   01/01/1988: 01:42:56 Link L2_1 setting changed to   0.00 by Control 2
   01/01/1988: 01:43:02 Link L1_1 setting changed to   0.00 by Control 1
   01/01/1988: 01:43:02 Link L2_1 setting changed to   0.00 by Control 2
   01/01/1988: 01:43:09 Link L1_1 setting changed to   0.00 by Control 1
   01/01/1988: 01:43:09 Link L2_1 setting changed to   0.00 by Control 2
   01/01/1988: 01:43:15 Link L1_1 setting changed to   0.00 by Control 1
   01/01/1988: 01:43:15 Link L2_1 setting changed to   0.00 by Control 2
   01/01/1988: 01:43:22 Link L1_1 setting changed to   0.00 by Control 1
   01/01/1988: 01:43:22 Link L2_1 setting changed to   0.00 by Control 2
   01/01/1988: 01:43:28 Link L1_1 setting changed to   0.00 by Control 1
   01/01/1988: 01:43:28 Link L2_1 setting changed to   0.00 by Control 2
   01/01/1988: 01:43:34 Link L1_1 setting changed to   0.00 by Control 1
   01/01/1988: 01:43:34 Link L2_1 setting changed to   0.00 by Control 2
   01/01/1988: 01:43:41 Link L1_1 setting changed to   0.00 by Control 1
   01/01/1988: 01:43:41 Link L2_1 setting changed to   0.00 by Control 2
   01/01/1988: 01:43:47 Link L1_1 setting changed to   0.00 by Control 1
   01/01/1988: 01:43:47 Link L2_1 setting changed to   0.00 by Control 2
   01/01/1988: 01:43:53 Link L1_1 setting changed to   0.00 by Control 1
   01/01/1988: 01:43:53 Link L2_1 setting changed to   0.00 by Control 2
   01/01/1988: 01:44:00 Link L1_1 setting changed to   0.00 by Control 1
   01/01/1988: 01:44:00 Link L2_1 setting changed to   0.00 by Control 2
   01/01/1988: 01:44:06 Link L1_1 setting changed to   0.00 by Control 1
   01/01/1988: 01:44:06 Link L2_1 setting changed to   0.00 by Control 2
   01/01/1988: 01:44:12 Link L1_1 setting changed to   0.00 by Control 1
   01/01/1988: 01:44:12 Link L2_1 setting changed to   0.00 by Control 2
   01/01/1988: 01:44:19 Link L1_1 setting changed to   0.00 by Control 1
   01/01/1988: 01:44:19 Link L2_1 setting changed to   0.00 by Control 2
   01/01/1988: 01:44:25 Link L1_1 setting changed to   0.00 by Control 1
   01/01/1988: 01:44:25 Link L2_1 setting changed to   0.00 by Control 2
   01/01/1988: 01:44:31 Link L1_1 setting changed to   0.00 by Control 1
   01/01/1988: 01:44:31 Link L2_1 setting changed to   0.00 by Control 2
   01/01/1988: 01:44:38 Link L1_1 setting changed to   0.00 by Control 1
   01/01/1988: 01:44:38 Link L2_1 setting changed to   0.00 by Control 2
   01/01/1988: 01:44:44 Link L1_1 setting changed to   0.00 by Control 1
   01/01/1988: 01:44:44 Link L2_1 setting changed to   0.00 by Control 2
   01/01/1988: 01:44:51 Link L1_1 setting changed to   0.00 by Control 1
   01/01/1988: 01:44:51 Link L2_1 setting changed to   0.00 by Control 2
   01/01/1988: 01:44:57 Link L1_1 setting changed to   0.00 by Control 1
   01/01/1988: 01:44:57 Link L2_1 setting changed to   0.00 by Control 2
   01/01/1988: 01:45:03 Link L1_1 setting changed to   0.00 by Control 1
   01/01/1988: 01:45:03 Link L2_1 setting changed to   0.00 by Control 2
   01/01/1988: 01:45:10 Link L1_1 setting changed to   0.00 by Control 1
   01/01/1988: 01:45:10 Link L2_1 setting changed to   0.00 by Control 2
   01/01/1988: 01:45:16 Link L1_1 setting changed to   0.00 by Control 1
   01/01/1988: 01:45:16 Link L2_1 setting changed to   0.00 by Control 2
   01/01/1988: 01:45:22 Link L1_1 setting changed to   0.00 by Control 1
[...]
  81009C               JUNCTION   5000.00  5000.00     0  00:15          54          54      -1.763
  81009D               JUNCTION   5000.00  5000.00     0  00:15          54          54      -1.582
  81009E               JUNCTION   5000.00  5000.00     0  00:15          54          54      -3.617
  81309                JUNCTION      0.00  5248.35     0  01:25           0        54.9       3.354
  81309A               JUNCTION      0.00  5248.94     0  01:25           0        54.9       3.359
  81309B               JUNCTION      0.00  5176.64     0  01:34           0        54.8       4.103
  81309C               JUNCTION      0.00  5276.78     0  01:24           0          55       5.322
  81309D               JUNCTION      0.00  5247.70     0  01:26           0        54.9       3.362
  81309E               JUNCTION      0.00  5350.48     0  01:02           0        57.157063203.507 ltr
  82308D               JUNCTION      0.00  9738.00     0  01:31           0        1.22       0.000
  82309                JUNCTION   4000.00  8520.96     0  03:00        43.2        91.7      -0.880
  82309A               JUNCTION   4000.00  8518.94     0  03:00        43.2        91.7       1.266
  82309B               JUNCTION   4000.00  8498.94     0  03:00        43.2         130       4.703
  82309C               JUNCTION   4000.00  5497.38     0  03:00        43.2        71.5      13.374
  10208                OUTFALL       0.00  2993.15     0  04:42           0          33       0.000
  10208A               OUTFALL       0.00 12924.43     0  03:29           0         117       0.000
  10208B               OUTFALL       0.00 13239.01     0  03:21           0         148       0.000
  10208C               OUTFALL       0.00 10323.42     0  03:06           0         110       0.000
  10208D               OUTFALL       0.00 13258.15     0  03:22           0         127       0.000
  10208E               OUTFALL       0.00   281.74     0  06:00           0         1.2       0.000
  Tank1_1              STORAGE    4000.00 25448.01     0  01:31        43.2        92.8       1.697
  Tank2_1              STORAGE    4000.00  8730.02     0  01:26        43.2        88.5     788.651
  Tank3_1              STORAGE       0.00  4736.75     0  00:39           0        51.5      13.594
  Tank4_1              STORAGE    4500.00  4500.00     0  00:15        48.6        48.6      -0.805
  
  
  **********************
  Node Surcharge Summary
  **********************
  
  Surcharging occurs when water rises above the top of the highest conduit.
  ---------------------------------------------------------------------
                                               Max. Height   Min. Depth
                                   Hours       Above Crown    Below Rim
  Node                 Type      Surcharged         Meters       Meters
  ---------------------------------------------------------------------
  82308D               JUNCTION        2.53         18.196       22.504
  
  
  *********************
  Node Flooding Summary
  *********************
  
  No nodes were flooded.
  
  
  **********************
  Storage Volume Summary
  **********************
  
  ------------------------------------------------------------------------------------------------
                         Average    Avg   Evap  Exfil     Maximum    Max    Time of Max    Maximum
                          Volume   Pcnt   Pcnt   Pcnt      Volume   Pcnt     Occurrence    Outflow
  Storage Unit           1000 mł   Full   Loss   Loss     1000 mł   Full    days hr:min        LPS
  ------------------------------------------------------------------------------------------------
  Tank1_1                  1.338    3.9    0.0    0.0       1.934    5.7       0  02:30   16446.65
  Tank2_1                  0.076   24.0    0.0    0.0       0.106   33.7       0  03:19    1787.73
  Tank3_1                  0.011    5.3    0.0    0.0       0.013    6.6       0  03:35    4730.02
  Tank4_1                  0.524    3.9    0.0    0.0       0.880    6.6       0  00:30    4736.75
  
  
  ***********************
  Outfall Loading Summary
  ***********************
  
  -------------------------------------------------------------------------
                         Flow       Avg       Max       Total         Total
                         Freq      Flow      Flow      Volume           TSS
  Outfall Node           Pcnt       LPS       LPS    10^6 ltr            kg
  -------------------------------------------------------------------------
  10208                 84.40   1659.16   2993.15      32.966     98125.340
  10208A                80.45   6757.12  12924.43     116.935         0.625
  10208B                91.21   7770.66  13239.01     148.015         0.000
  10208C                92.22   6104.99  10323.42     109.803       245.245
  10208D                86.26   7132.73  13258.15     127.353         0.000
  10208E                68.09     66.63    281.74       1.201         0.000
  -------------------------------------------------------------------------
  System                83.77  29491.29  51374.21     536.272     98371.210
  
  
  ********************
  Link Flow Summary
  ********************
  
  -----------------------------------------------------------------------------
                                 Maximum  Time of Max   Maximum    Max/    Max/
                                  |Flow|   Occurrence   |Veloc|    Full    Full
  Link                 Type          LPS  days hr:min     m/sec    Flow   Depth
  -----------------------------------------------------------------------------
  1030                 CONDUIT   2993.15     0  04:42      0.26    0.02    0.22
  1030A                CONDUIT  12924.43     0  03:29      0.50    0.01    0.32
  1030B                CONDUIT  13239.01     0  03:21      2.44    0.01    0.15
  1030C                CONDUIT  10323.42     0  03:06      2.30    0.01    0.14
  1030D                CONDUIT  13258.15     0  03:22      2.44    0.01    0.15
  1030E                CONDUIT    281.74     0  06:00      0.97    0.00    0.03
  1570                 CONDUIT   4959.96     0  03:11      1.27    0.06    0.31
  1570A                CONDUIT   4962.99     0  03:11      1.27    0.06    0.22
  1570B                CONDUIT   8494.80     0  03:05      2.05    0.10    0.25
  1570C                CONDUIT  10430.57     0  03:00      4.27    0.01    0.16
  1570D                CONDUIT   4964.48     0  03:11      1.32    0.06    0.22
  1570E                CONDUIT    260.91     0  05:41      0.74    0.00    0.05
  1600                 CONDUIT   8390.16     0  02:37      1.89    0.08    0.39
  1600A                CONDUIT   8537.55     0  03:03      1.87    0.09    0.23
  1600B                CONDUIT   4918.42     0  03:05      1.20    0.05    0.20
  1600C                CONDUIT   1212.90     0  03:29      0.60    0.01    0.16
  1600D                CONDUIT   8516.79     0  03:04      1.87    0.09    0.23
  1600E                CONDUIT     93.74     0  06:00      0.46    0.00    0.04
  1602                 CONDUIT   9369.13     0  03:05      1.36    0.32    0.38
  1602A                CONDUIT   8567.12     0  02:52      1.34    0.29    0.36
  1602B                CONDUIT   4990.88     0  03:00      1.14    0.17    0.27
  1602C                CONDUIT      1.00     0  00:01      0.10    0.00    0.23
  1602D                CONDUIT   8571.26     0  02:56      1.34    0.29    0.36
  1602E                CONDUIT    100.00     0  00:14      0.34    0.00    0.51
  1630                 CONDUIT   9962.96     0  02:08      1.99    0.01    0.33
  1630A                CONDUIT  13453.08     0  03:11      3.14    0.01    0.16
  1630B                CONDUIT  13359.13     0  03:12      2.21    0.01    0.16
  1630C                CONDUIT  10409.17     0  03:02      2.35    0.01    0.15
  1630D                CONDUIT  13403.52     0  03:12      2.29    0.01    0.16
  1630E                CONDUIT    333.61     0  06:00      0.82    0.00    0.04
  8040                 CONDUIT   4627.46     0  00:59      2.43    0.16    0.26
  8040A                CONDUIT   4749.62     0  00:32      3.24    0.10    0.23
  8040B                CONDUIT   4728.88     0  00:32      3.24    0.10    0.23
  8040C                CONDUIT   1578.11     0  00:32      3.24    0.03    0.13
  8040D                CONDUIT   4728.88     0  00:32      3.24    0.10    0.23
  8040E                CONDUIT   4736.75     0  00:39      3.16    0.10    0.22
  8060                 CONDUIT   4520.96     0  03:00      2.08    0.13    0.23
  8060A                CONDUIT   4518.96     0  03:00      2.07    0.13    0.23
  8060B                CONDUIT   4500.00     0  06:00      2.07    0.13    0.23
  8060C                CONDUIT   1500.00     0  06:00      1.50    0.04    0.13
  8060D                CONDUIT   4498.92     0  03:00      2.07    0.13    0.23
  8060E                CONDUIT   4730.02     0  01:26      2.04    0.13    0.64
  8100                 CONDUIT   5248.35     0  01:25      2.67    0.10    0.22
  8100A                CONDUIT   5248.94     0  01:25      2.67    0.10    0.22
  8100B                CONDUIT   5176.64     0  01:34      2.71    0.10    0.21
  8100C                CONDUIT   5276.78     0  01:24      2.67    0.10    0.23
  8100D                CONDUIT   5247.70     0  01:26      2.67    0.10    0.22
  8100E                CONDUIT   5350.48     0  01:02      2.65    0.10    0.44
  8130                 CONDUIT   5085.89     0  02:50      2.28    0.11    0.22
  8130A                CONDUIT   5087.44     0  02:50      2.28    0.11    0.22
  8130B                CONDUIT   4988.51     0  03:01      1.71    0.11    0.24
  8130C                CONDUIT   4943.42     0  03:02      2.80    0.10    0.17
  8130D                CONDUIT   5085.99     0  02:50      2.27    0.11    0.22
  8130E                CONDUIT     98.37     0  05:41      0.02    0.00    0.41
  L1_1                 PUMP         0.00     0  00:00              0.00
  L2_1                 PUMP         0.00     0  00:00              0.00
  L3_1                 PUMP         0.00     0  00:00              0.00
  L4_1                 PUMP       380.45     0  03:18              0.85
  OR1@82309B-15009B    ORIFICE   3599.64     0  01:52                          
  OR1@82309D-82308D    ORIFICE  17068.28     0  01:31                      1.00
  WEIR1@82309C-15009C  WEIR      5491.74     0  03:00                      0.68
  
  
  ***************************
  Flow Classification Summary
  ***************************
  
  -------------------------------------------------------------------------------------
                      Adjusted    ---------- Fraction of Time in Flow Class ---------- 
                       /Actual         Up    Down  Sub   Sup   Up    Down  Norm  Inlet 
  Conduit               Length    Dry  Dry   Dry   Crit  Crit  Crit  Crit  Ltd   Ctrl  
  -------------------------------------------------------------------------------------
  1030                    1.00   0.05  0.00  0.00  0.95  0.00  0.00  0.00  0.00  0.00
  1030A                   1.00   0.00  0.15  0.00  0.85  0.00  0.00  0.00  0.85  0.00
  1030B                   1.00   0.03  0.00  0.00  0.97  0.00  0.00  0.00  0.00  0.00
  1030C                   1.00   0.02  0.00  0.00  0.98  0.00  0.00  0.00  0.00  0.00
  1030D                   1.00   0.05  0.00  0.00  0.95  0.00  0.00  0.00  0.00  0.00
  1030E                   1.00   0.05  0.00  0.00  0.95  0.00  0.00  0.00  0.00  0.00
  1570                    1.00   0.00  0.00  0.00  1.00  0.00  0.00  0.00  0.85  0.00
  1570A                   1.00   0.00  0.00  0.00  1.00  0.00  0.00  0.00  0.85  0.00
  1570B                   1.00   0.00  0.00  0.00  0.88  0.12  0.00  0.00  0.75  0.00
  1570C                   1.56   0.00  0.00  0.00  0.06  0.94  0.00  0.00  1.00  0.00
  1570D                   1.00   0.00  0.00  0.00  1.00  0.00  0.00  0.00  0.84  0.00
  1570E                   1.00   0.00  0.23  0.00  0.77  0.00  0.00  0.00  0.77  0.00
  1600                    1.00   0.00  0.00  0.00  0.91  0.09  0.00  0.00  0.17  0.00
  1600A                   1.00   0.00  0.00  0.00  0.91  0.09  0.00  0.00  0.75  0.00
  1600B                   1.00   0.00  0.00  0.00  1.00  0.00  0.00  0.00  0.96  0.00
  1600C                   1.00   0.00  0.00  0.00  1.00  0.00  0.00  0.00  0.54  0.00
  1600D                   1.00   0.00  0.00  0.00  0.91  0.09  0.00  0.00  0.74  0.00
  1600E                   1.00   0.00  0.00  0.00  1.00  0.00  0.00  0.00  0.61  0.00
  1602                    1.00   0.00  0.00  0.00  1.00  0.00  0.00  0.00  0.41  0.00
  1602A                   1.00   0.00  0.00  0.00  1.00  0.00  0.00  0.00  0.00  0.00
  1602B                   1.00   0.00  0.00  0.00  1.00  0.00  0.00  0.00  0.00  0.00
  1602C                   1.00   0.00  0.00  0.00  1.00  0.00  0.00  0.00  0.00  0.00
  1602D                   1.00   0.00  0.00  0.00  1.00  0.00  0.00  0.00  0.00  0.00
  1602E                   1.00   0.00  0.00  0.00  1.00  0.00  0.00  0.00  0.00  0.00
  1630                    1.00   0.00  0.00  0.00  0.90  0.10  0.00  0.00  0.02  0.00
  1630A                   1.00   0.00  0.00  0.00  0.75  0.25  0.00  0.00  0.28  0.00
  1630B                   1.00   0.00  0.00  0.00  0.84  0.16  0.00  0.00  0.00  0.00
  1630C                   1.00   0.00  0.00  0.00  0.91  0.09  0.00  0.00  0.15  0.00
  1630D                   1.00   0.00  0.00  0.00  0.85  0.15  0.00  0.00  0.19  0.00
  1630E                   1.00   0.00  0.00  0.00  1.00  0.00  0.00  0.00  0.00  0.00
  8040                    1.00   0.00  0.00  0.00  0.95  0.05  0.00  0.00  0.48  0.00
  8040A                   1.00   0.00  0.00  0.00  0.88  0.12  0.00  0.00  0.88  0.00
  8040B                   1.00   0.00  0.00  0.00  0.88  0.12  0.00  0.00  0.88  0.00
  8040C                   1.00   0.00  0.00  0.00  0.87  0.13  0.00  0.00  0.87  0.00
  8040D                   1.00   0.00  0.00  0.00  0.88  0.12  0.00  0.00  0.88  0.00
  8040E                   1.00   0.00  0.00  0.00  0.87  0.13  0.00  0.00  0.87  0.00
  8060                    1.00   0.00  0.00  0.00  0.00  0.00  0.00  1.00  0.00  0.00
  8060A                   1.00   0.00  0.00  0.00  0.00  0.00  0.00  1.00  0.00  0.00
  8060B                   1.00   0.00  0.00  0.00  0.00  0.00  0.00  1.00  0.00  0.00
  8060C                   1.00   0.00  0.00  0.00  0.00  0.00  0.00  1.00  0.00  0.00
  8060D                   1.00   0.00  0.00  0.00  0.00  0.00  0.00  1.00  0.00  0.00
  8060E                   1.00   0.00  0.00  0.00  0.77  0.00  0.00  0.23  0.28  0.00
  8100                    1.00   0.00  0.00  0.00  0.86  0.14  0.00  0.00  0.76  0.00
  8100A                   1.00   0.00  0.00  0.00  0.86  0.14  0.00  0.00  0.76  0.00
  8100B                   1.00   0.00  0.00  0.00  0.84  0.16  0.00  0.00  0.70  0.00
  8100C                   1.00   0.00  0.00  0.00  0.86  0.14  0.00  0.00  0.77  0.00
  8100D                   1.00   0.00  0.00  0.00  0.86  0.14  0.00  0.00  0.76  0.00
  8100E                   1.00   0.00  0.00  0.00  0.87  0.13  0.00  0.00  0.83  0.00
  8130                    1.00   0.00  0.00  0.00  0.82  0.18  0.00  0.00  0.43  0.00
  8130A                   1.00   0.00  0.00  0.00  0.82  0.18  0.00  0.00  0.43  0.00
  8130B                   1.00   0.00  0.00  0.00  1.00  0.00  0.00  0.00  1.00  0.00
  8130C                   1.00   0.00  0.00  0.00  0.19  0.81  0.00  0.00  0.00  0.00
  8130D                   1.00   0.00  0.00  0.00  0.83  0.17  0.00  0.00  0.43  0.00
  8130E                   1.00   0.00  0.23  0.00  0.77  0.00  0.00  0.00  0.77  0.00
  
  
  *************************
  Conduit Surcharge Summary
  *************************
  
  ----------------------------------------------------------------------------
                                                           Hours        Hours 
                         --------- Hours Full --------   Above Full   Capacity
  Conduit                Both Ends  Upstream  Dnstream   Normal Flow   Limited
  ----------------------------------------------------------------------------
  1602E                       0.01      3.67      0.01      0.01         0.01
  8060E                       0.01      0.01      3.17      0.01         0.01
  
  
  ***************
  Pumping Summary
  ***************
  
  ---------------------------------------------------------------------------------------------------------
                                                  Min       Avg       Max     Total     Power    % Time Off
                        Percent   Number of      Flow      Flow      Flow    Volume     Usage    Pump Curve
  Pump                 Utilized   Start-Ups       LPS       LPS       LPS  10^6 ltr     Kw-hr    Low   High
  ---------------------------------------------------------------------------------------------------------
  L1_1                     0.00           0      0.00      0.00      0.00     0.000      0.00    0.0    0.0
  L2_1                     0.00           0      0.00      0.00      0.00     0.000      0.00    0.0    0.0
  L3_1                     0.00           0      0.00      0.00      0.00     0.000      0.00    0.0    0.0
  L4_1                    77.35           1      0.00    295.56    380.45     5.158     33.02    0.0    0.0
  
  
  ***************************
  Link Pollutant Load Summary
  ***************************
  
  ----------------------------------
                                 TSS
  Link                            kg
  ----------------------------------
  1030                     9.813e+04
  1030A                        0.625
  1030B                        0.000
  1030C                      245.245
  1030D                        0.000
  1030E                        0.000
  1570                         0.000
  1570A                        0.000
  1570B                        0.000
  1570C                      305.319
  1570D                        0.000
  1570E                        0.000
  1600                     3.619e+05
  1600A                        2.063
  1600B                        0.000
  1600C                       12.567
  1600D                        0.000
  1600E                        0.000
  1602                     4.610e+05
  1602A                        2.080
  1602B                        0.000
  1602C                        0.028
  1602D                        0.000
  1602E                        0.000
  1630                     2.629e+05
  1630A                        1.992
  1630B                        0.000
  1630C                      300.736
  1630D                        0.000
  1630E                        0.000
  8040                     4.812e+05
  8040A                        2.347
  8040B                        0.000
  8040C                      317.514
  8040D                        0.000
  8040E                        0.000
  8060                     4.731e+05
  8060A                        2.283
  8060B                        0.000
  8060C                      283.385
  8060D                        0.000
  8060E                        0.000
  8100                         0.000
  8100A                        0.000
  8100B                        0.000
  8100C                        0.000
  8100D                        0.000
  8100E                        0.000
  8130                         0.000
  8130A                        0.000
  8130B                        0.000
  8130C                        0.000
  8130D                        0.000
  8130E                        0.000
  L1_1                         0.000
  L2_1                         0.000
  L3_1                         0.000
  L4_1                         0.000
  OR1@82309B-15009B            0.000
  OR1@82309D-82308D            0.000
  WEIR1@82309C-15009C        303.247
  

  Analysis begun on:  Tue Jun 23 20:36:05 2026
  Analysis ended on:  Tue Jun 23 20:36:05 2026
  Total elapsed time: < 1 sec