
  EPA STORM WATER MANAGEMENT MODEL - VERSION 5.2 (Build 5.2.4)
  ------------------------------------------------------------

  WARNING 02: maximum depth increased for Node JCT-10
  WARNING 02: maximum depth increased for Node JCT-14
  WARNING 02: maximum depth increased for Node JCT-16
  WARNING 02: maximum depth increased for Node JCT-28
  WARNING 02: maximum depth increased for Node JCT-30
  WARNING 02: maximum depth increased for Node JCT-32
  WARNING 02: maximum depth increased for Node JCT-36
  WARNING 02: maximum depth increased for Node JCT-40
  
  ****************
  Analysis Options
  ****************
  Flow Units ............... CFS
  Process Models:
    Rainfall/Runoff ........ NO
    RDII ................... NO
    Snowmelt ............... NO
    Groundwater ............ NO
    Flow Routing ........... YES
    Ponding Allowed ........ YES
    Water Quality .......... NO
  Flow Routing Method ...... DYNWAVE
  Surcharge Method ......... EXTRAN
  Starting Date ............ 01/01/2002 00:00:00
  Ending Date .............. 01/01/2002 06:00:00
  Antecedent Dry Days ...... 5.0
  Report Time Step ......... 00:05:00
  Routing Time Step ........ 300.00 sec
  Variable Time Step ....... YES
  Maximum Trials ........... 4
  Number of Threads ........ 1
  Head Tolerance ........... 0.005000 ft
  
  
  **************************        Volume        Volume
  Flow Routing Continuity        acre-feet      10^6 gal
  **************************     ---------     ---------
  Dry Weather Inflow .......         0.000         0.000
  Wet Weather Inflow .......         0.000         0.000
  Groundwater Inflow .......         0.000         0.000
  RDII Inflow ..............         0.000         0.000
  External Inflow ..........        89.213        29.071
  External Outflow .........        89.119        29.041
  Flooding Loss ............         0.020         0.007
  Evaporation Loss .........         0.000         0.000
  Exfiltration Loss ........         0.000         0.000
  Initial Stored Volume ....         0.000         0.000
  Final Stored Volume ......         0.084         0.027
  Continuity Error (%) .....        -0.011
  
  
  *************************
  Highest Continuity Errors
  *************************
  Node JCT-36 (2.98%)
  
  
  ***************************
  Time-Step Critical Elements
  ***************************
  Link CDT-11 (99.93%)
  
  
  ********************************
  Highest Flow Instability Indexes
  ********************************
  Link CDT-31 (23)
  
  
  *********************************
  Most Frequent Nonconverging Nodes
  *********************************
  Node OFALL-12 (21.56%)
  Node OFALL-14 (21.56%)
  Node JCT-30 (21.31%)
  Node JCT-16 (0.16%)
  Node JCT-10 (0.14%)
  
  
  *************************
  Routing Time Step Summary
  *************************
  Minimum Time Step           :     0.14 sec
  Average Time Step           :     0.91 sec
  Maximum Time Step           :     2.56 sec
  % of Time in Steady State   :     0.00
  Average Iterations per Step :     2.48
  % of Steps Not Converging   :    21.56
  Time Step Frequencies       :
     300.000 - 24.082 sec      :     0.00 %
     24.082 -  1.933 sec      :     0.01 %
      1.933 -  0.155 sec      :    99.99 %
      0.155 -  0.012 sec      :     0.00 %
      0.012 -  0.001 sec      :     0.00 %
  
  
  ******************
  Node Depth Summary
  ******************
  
  ---------------------------------------------------------------------------------
                                 Average  Maximum  Maximum  Time of Max    Reported
                                   Depth    Depth      HGL   Occurrence   Max Depth
  Node                 Type         Feet     Feet     Feet  days hr:min        Feet
  ---------------------------------------------------------------------------------
  JCT-10               JUNCTION    63.22    69.25   127.64     0  00:00       63.25
  JCT-14               JUNCTION    59.30    68.92   126.28     0  00:00       59.31
  JCT-16               JUNCTION    54.44    62.50   112.97     0  00:00       54.48
  JCT-28               JUNCTION    59.50    59.58   118.38     0  00:08       59.58
  JCT-30               JUNCTION    51.05    51.57   102.44     0  00:02       51.51
  JCT-32               JUNCTION    56.64    57.21   114.19     0  00:08       57.21
  JCT-36               JUNCTION    52.69    55.12   110.08     0  00:21       55.11
  JCT-40               JUNCTION    57.72    58.63   117.03     0  00:16       58.63
  OFALL-12             OUTFALL      0.00     0.00    48.97     0  00:00        0.00
  OFALL-14             OUTFALL      0.00     0.00    48.97     0  00:00        0.00
  
  
  *******************
  Node Inflow Summary
  *******************
  
  -------------------------------------------------------------------------------------------------
                                  Maximum  Maximum                  Lateral       Total        Flow
                                  Lateral    Total  Time of Max      Inflow      Inflow     Balance
                                   Inflow   Inflow   Occurrence      Volume      Volume       Error
  Node                 Type           CFS      CFS  days hr:min    10^6 gal    10^6 gal     Percent
  -------------------------------------------------------------------------------------------------
  JCT-10               JUNCTION    163.95   204.46     0  00:00        26.5        26.5      -0.030
  JCT-14               JUNCTION      0.00  1134.39     0  00:00           0        26.5       0.036
  JCT-16               JUNCTION      0.00   285.76     0  00:00           0        26.9      -0.030
  JCT-28               JUNCTION     13.17    13.17     0  00:00        2.13        2.13       0.359
  JCT-30               JUNCTION      0.00    13.17     0  00:08           0        2.12       0.316
  JCT-32               JUNCTION      1.69     1.69     0  00:00       0.273       0.273       2.040
  JCT-36               JUNCTION      0.00     6.95     0  00:00           0       0.174       3.072
  JCT-40               JUNCTION      1.11     1.11     0  00:00       0.179       0.179       3.236
  OFALL-12             OUTFALL       0.00    23.95     0  02:53           0        2.11       0.000
  OFALL-14             OUTFALL       0.00   482.94     0  00:00           0        26.9       0.000
  
  
  **********************
  Node Surcharge Summary
  **********************
  
  Surcharging occurs when water rises above the top of the highest conduit.
  ---------------------------------------------------------------------
                                               Max. Height   Min. Depth
                                   Hours       Above Crown    Below Rim
  Node                 Type      Surcharged           Feet         Feet
  ---------------------------------------------------------------------
  JCT-10               JUNCTION        5.99          6.860        0.000
  JCT-14               JUNCTION        0.01          7.010        0.000
  JCT-16               JUNCTION        0.01          7.990        0.000
  
  
  *********************
  Node Flooding Summary
  *********************
  
  Flooding refers to all water that overflows a node, whether it ponds or not.
  --------------------------------------------------------------------------
                                                             Total   Maximum
                                 Maximum   Time of Max       Flood    Ponded
                        Hours       Rate    Occurrence      Volume     Depth
  Node                 Flooded       CFS   days hr:min    10^6 gal      Feet
  --------------------------------------------------------------------------
  JCT-10                  0.01    143.92      0  00:00       0.001     6.860
  JCT-14                  0.01    849.23      0  00:00       0.001     7.010
  JCT-16                  0.01    201.45      0  00:00       0.004     7.990
  
  
  ***********************
  Outfall Loading Summary
  ***********************
  
  -----------------------------------------------------------
                         Flow       Avg       Max       Total
                         Freq      Flow      Flow      Volume
  Outfall Node           Pcnt       CFS       CFS    10^6 gal
  -----------------------------------------------------------
  OFALL-12              99.40     13.16     23.95       2.114
  OFALL-14              99.92    166.77    482.94      26.925
  -----------------------------------------------------------
  System                99.66    179.93    482.94      29.039
  
  
  ********************
  Link Flow Summary
  ********************
  
  -----------------------------------------------------------------------------
                                 Maximum  Time of Max   Maximum    Max/    Max/
                                  |Flow|   Occurrence   |Veloc|    Full    Full
  Link                 Type          CFS  days hr:min    ft/sec    Flow   Depth
  -----------------------------------------------------------------------------
  CDT-11               CONDUIT   1134.39     0  00:00    >50.00    3.71    1.00
  CDT-13               CONDUIT    285.76     0  00:00     24.83    0.84    1.00
  CDT-15               CONDUIT    482.94     0  00:00    >50.00    1.57    1.00
  CDT-29               CONDUIT     13.17     0  00:08     14.12    0.54    0.52
  CDT-31               CONDUIT     23.95     0  02:53     31.54    0.89    0.48
  CDT-33               CONDUIT      1.69     0  00:08      1.60    0.05    0.58
  CDT-35               CONDUIT      6.95     0  00:00      5.97    0.14    0.63
  CDT-37               CONDUIT      1.11     0  00:16      7.28    0.07    0.18
  
  
  ***************************
  Flow Classification Summary
  ***************************
  
  -------------------------------------------------------------------------------------
                      Adjusted    ---------- Fraction of Time in Flow Class ---------- 
                       /Actual         Up    Down  Sub   Sup   Up    Down  Norm  Inlet 
  Conduit               Length    Dry  Dry   Dry   Crit  Crit  Crit  Crit  Ltd   Ctrl  
  -------------------------------------------------------------------------------------
  CDT-11                  1.00   0.00  0.00  0.00  0.00  0.00  0.00  1.00  0.00  0.00
  CDT-13                  1.00   0.00  0.00  0.00  0.00  1.00  0.00  0.00  1.00  0.00
  CDT-15                  1.00   0.00  0.00  0.00  0.00  0.00  0.00  1.00  0.00  0.00
  CDT-29                  1.00   0.00  0.00  0.00  0.00  0.00  0.00  1.00  0.00  0.00
  CDT-31                  1.00   0.01  0.00  0.00  0.00  0.00  0.00  0.99  0.00  0.00
  CDT-33                  1.00   0.00  0.02  0.00  0.98  0.00  0.00  0.00  0.98  0.00
  CDT-35                  1.00   0.00  0.06  0.00  0.94  0.00  0.00  0.00  0.94  0.00
  CDT-37                  1.00   0.03  0.00  0.00  0.00  0.00  0.00  0.97  0.00  0.00
  
  
  *************************
  Conduit Surcharge Summary
  *************************
  
  ----------------------------------------------------------------------------
                                                           Hours        Hours 
                         --------- Hours Full --------   Above Full   Capacity
  Conduit                Both Ends  Upstream  Dnstream   Normal Flow   Limited
  ----------------------------------------------------------------------------
  CDT-11                      0.01      5.99      0.01      0.01         0.01
  CDT-13                      0.01      0.01      0.01      0.01         0.01
  CDT-15                      0.01      5.64      0.01      0.01         0.01
  CDT-33                      0.01      0.01      5.88      0.01         0.01
  CDT-35                      0.01      0.01      6.00      0.01         0.01
  

  Analysis begun on:  Tue Jun 23 20:36:05 2026
  Analysis ended on:  Tue Jun 23 20:36:05 2026
  Total elapsed time: < 1 sec