
  EPA STORM WATER MANAGEMENT MODEL - VERSION 5.2 (Build 5.2.4)
  ------------------------------------------------------------

  WARNING 01: wet weather time step reduced to recording interval for Rain Gage RG_SEWER_RAINFALL
  WARNING 02: maximum depth increased for Node 52
  WARNING 02: maximum depth increased for Node 903
  WARNING 02: maximum depth increased for Node 919
  WARNING 02: maximum depth increased for Node 920
  WARNING 02: maximum depth increased for Node 921
  WARNING 02: maximum depth increased for Node 922
  WARNING 02: maximum depth increased for Node 925
  WARNING 02: maximum depth increased for Node 926
  
  ****************
  Analysis Options
  ****************
  Flow Units ............... CFS
  Process Models:
    Rainfall/Runoff ........ NO
    RDII ................... NO
    Snowmelt ............... NO
    Groundwater ............ NO
    Flow Routing ........... YES
    Ponding Allowed ........ NO
    Water Quality .......... NO
  Infiltration Method ...... HORTON
  Flow Routing Method ...... DYNWAVE
  Surcharge Method ......... EXTRAN
  Starting Date ............ 01/01/2002 00:00:00
  Ending Date .............. 01/01/2002 23:00:00
  Antecedent Dry Days ...... 5.0
  Report Time Step ......... 00:15:00
  Wet Time Step ............ 00:15:00
  Dry Time Step ............ 23:00:00
  Routing Time Step ........ 10.00 sec
  Variable Time Step ....... YES
  Maximum Trials ........... 4
  Number of Threads ........ 1
  Head Tolerance ........... 0.005000 ft
  
  
  **************************        Volume         Depth
  Runoff Quantity Continuity     acre-feet        inches
  **************************     ---------       -------
  Total Precipitation ......         0.000         0.000
  Evaporation Loss .........         0.000         0.000
  Infiltration Loss ........         0.000         0.000
  Surface Runoff ...........         0.000         0.000
  Final Storage ............         0.000         0.000
  Continuity Error (%) .....         0.000
  
  
  **************************        Volume        Volume
  Flow Routing Continuity        acre-feet      10^6 gal
  **************************     ---------     ---------
  Dry Weather Inflow .......         5.932         1.933
  Wet Weather Inflow .......         0.000         0.000
  Groundwater Inflow .......         0.000         0.000
  RDII Inflow ..............         0.000         0.000
  External Inflow ..........         0.000         0.000
  External Outflow .........         3.119         1.016
  Flooding Loss ............         2.812         0.916
  Evaporation Loss .........         0.000         0.000
  Exfiltration Loss ........         0.000         0.000
  Initial Stored Volume ....         0.017         0.006
  Final Stored Volume ......         0.028         0.009
  Continuity Error (%) .....        -0.170
  
  
  ***************************
  Time-Step Critical Elements
  ***************************
  Link 937 (5.54%)
  Link 939 (2.18%)
  
  
  ********************************
  Highest Flow Instability Indexes
  ********************************
  Link 940 (55)
  Link P51 (55)
  Link FM51 (49)
  Link FM51A (30)
  Link FM51B (28)
  
  
  *********************************
  Most Frequent Nonconverging Nodes
  *********************************
  Node OUTLET94 (64.26%)
  Node JC48 (63.68%)
  Node 923 (1.38%)
  Node 924 (1.27%)
  Node 54 (0.70%)
  
  
  *************************
  Routing Time Step Summary
  *************************
  Minimum Time Step           :     1.24 sec
  Average Time Step           :     9.93 sec
  Maximum Time Step           :    10.00 sec
  % of Time in Steady State   :     0.00
  Average Iterations per Step :     3.34
  % of Steps Not Converging   :    64.26
  Time Step Frequencies       :
     10.000 -  5.493 sec      :    99.72 %
      5.493 -  3.017 sec      :     0.13 %
      3.017 -  1.657 sec      :     0.12 %
      1.657 -  0.910 sec      :     0.02 %
      0.910 -  0.500 sec      :     0.00 %
  
  
  ******************
  Node Depth Summary
  ******************
  
  ---------------------------------------------------------------------------------
                                 Average  Maximum  Maximum  Time of Max    Reported
                                   Depth    Depth      HGL   Occurrence   Max Depth
  Node                 Type         Feet     Feet     Feet  days hr:min        Feet
  ---------------------------------------------------------------------------------
  44                   JUNCTION     0.27     0.59   276.39     0  14:00        0.59
  52                   JUNCTION     0.15     0.35   292.55     0  02:03        0.28
  54                   JUNCTION     0.84     2.40   292.90     0  13:11        2.25
  901                  JUNCTION     0.37     0.88   278.68     0  14:00        0.88
  903                  JUNCTION     0.17     0.38   281.58     0  13:51        0.38
  917                  JUNCTION     0.13     0.27   283.47     0  13:35        0.27
  918                  JUNCTION     0.25     0.53   280.33     0  13:10        0.50
  919                  JUNCTION     0.31     0.69   274.89     0  13:30        0.69
  920                  JUNCTION     0.32     1.20   274.00     0  02:02        1.20
  921                  JUNCTION     0.34     1.20   296.80     0  13:12        1.20
  922                  JUNCTION     0.66     2.58   296.58     0  13:36        2.58
  923                  JUNCTION     0.74     2.20   295.00     0  02:05        2.20
  924                  JUNCTION     0.64     2.20   294.00     0  13:11        2.01
  925                  JUNCTION     0.22     0.48   297.88     0  13:08        0.46
  926                  JUNCTION     0.24     0.62   299.42     0  14:00        0.62
  927                  JUNCTION     0.14     0.30   301.50     0  13:02        0.30
  934                  JUNCTION     4.99     5.00   280.00     0  00:01        5.00
  937                  JUNCTION     4.99     5.00   280.00     0  00:01        5.00
  938                  JUNCTION     0.25     0.61   302.61     0  13:14        0.61
  939                  JUNCTION     0.18     0.38   302.38     0  13:12        0.38
  940                  JUNCTION     0.24     0.52   300.52     0  13:36        0.52
  JC48                 JUNCTION    34.18   119.00   393.00     0  02:03       59.49
  OUTLET94             OUTFALL      0.46     0.75   289.75     0  13:11        0.74
  WW48                 STORAGE      0.66     7.41   273.41     0  14:01        7.41
  
  
  *******************
  Node Inflow Summary
  *******************
  
  -------------------------------------------------------------------------------------------------
                                  Maximum  Maximum                  Lateral       Total        Flow
                                  Lateral    Total  Time of Max      Inflow      Inflow     Balance
                                   Inflow   Inflow   Occurrence      Volume      Volume       Error
  Node                 Type           CFS      CFS  days hr:min    10^6 gal    10^6 gal     Percent
  -------------------------------------------------------------------------------------------------
  44                   JUNCTION      0.50     2.00     0  14:00      0.0976       0.388       0.051
  52                   JUNCTION      0.00     7.10     0  02:03           0       0.601       0.076
  54                   JUNCTION      0.50     3.92     0  13:10      0.0976       0.944       0.029
  901                  JUNCTION      0.50     1.54     0  13:12      0.0976       0.291       0.064
  903                  JUNCTION      0.00     0.50     0  13:31           0      0.0976       0.115
  917                  JUNCTION      0.50     0.50     0  13:00      0.0976      0.0976       0.065
  918                  JUNCTION      0.50     1.00     0  13:10      0.0976       0.195       0.903
  919                  JUNCTION      0.50     2.50     0  14:00      0.0976       0.486       0.048
  920                  JUNCTION      0.50     3.05     0  13:30      0.0976       0.583       0.069
  921                  JUNCTION      0.50     2.04     0  13:09      0.0976        0.39       0.063
  922                  JUNCTION      0.50     2.93     0  13:35      0.0976       0.703       0.051
  923                  JUNCTION      0.50     3.43     0  13:36      0.0976       0.801       0.083
  924                  JUNCTION      0.50     3.42     0  13:10      0.0976       0.847       0.131
  925                  JUNCTION      0.50     1.50     0  14:00      0.0976       0.293       0.157
  926                  JUNCTION      0.50     1.00     0  13:03      0.0976       0.195       0.038
  927                  JUNCTION      0.50     0.50     0  13:00      0.0976      0.0976       0.157
  934                  JUNCTION      0.80     2.11     0  02:03       0.156       0.472       0.033
  937                  JUNCTION      0.40     1.67     0  02:03      0.0781       0.363       0.039
  938                  JUNCTION      0.80     0.80     0  13:00       0.156       0.156       0.213
  939                  JUNCTION      0.40     0.40     0  13:00      0.0781      0.0781       0.267
  940                  JUNCTION      0.00     1.27     0  13:19           0       0.234       0.943
  JC48                 JUNCTION      0.00     2.00     0  00:00           0       0.575      -0.221
  OUTLET94             OUTFALL       0.50     3.54     0  13:11      0.0976        1.02       0.000
  WW48                 STORAGE       0.00     4.62     0  13:11           0       0.572      -0.538
  
  
  **********************
  Node Surcharge Summary
  **********************
  
  Surcharging occurs when water rises above the top of the highest conduit.
  ---------------------------------------------------------------------
                                               Max. Height   Min. Depth
                                   Hours       Above Crown    Below Rim
  Node                 Type      Surcharged           Feet         Feet
  ---------------------------------------------------------------------
  54                   JUNCTION        3.43          0.900        0.000
  920                  JUNCTION        0.59          0.000        0.000
  921                  JUNCTION        0.81          0.000        0.000
  923                  JUNCTION        3.14          1.000        0.000
  924                  JUNCTION        3.10          1.000        0.000
  934                  JUNCTION       22.98          4.500        0.000
  937                  JUNCTION       22.98          4.500        0.000
  JC48                 JUNCTION       22.99        118.502        0.000
  
  
  *********************
  Node Flooding Summary
  *********************
  
  Flooding refers to all water that overflows a node, whether it ponds or not.
  --------------------------------------------------------------------------
                                                             Total   Maximum
                                 Maximum   Time of Max       Flood    Ponded
                        Hours       Rate    Occurrence      Volume     Depth
  Node                 Flooded       CFS   days hr:min    10^6 gal      Feet
  --------------------------------------------------------------------------
  54                      0.01      0.84      0  13:11       0.000     0.000
  920                     0.58      1.87      0  13:10       0.016     0.000
  921                     0.80      0.79      0  13:37       0.015     0.000
  923                     2.74      1.01      0  13:37       0.050     0.000
  924                     0.01      0.17      0  13:11       0.000     0.000
  934                    22.46      2.11      0  02:03       0.471     0.000
  937                    22.30      1.66      0  02:03       0.363     0.000
  
  
  **********************
  Storage Volume Summary
  **********************
  
  ------------------------------------------------------------------------------------------------
                         Average    Avg   Evap  Exfil     Maximum    Max    Time of Max    Maximum
                          Volume   Pcnt   Pcnt   Pcnt      Volume   Pcnt     Occurrence    Outflow
  Storage Unit          1000 ftģ   Full   Loss   Loss    1000 ftģ   Full    days hr:min        CFS
  ------------------------------------------------------------------------------------------------
  WW48                     0.074    3.6    0.0    0.0       0.838   41.2       0  14:01       2.00
  
  
  ***********************
  Outfall Loading Summary
  ***********************
  
  -----------------------------------------------------------
                         Flow       Avg       Max       Total
                         Freq      Flow      Flow      Volume
  Outfall Node           Pcnt       CFS       CFS    10^6 gal
  -----------------------------------------------------------
  OUTLET94              91.53      1.80      3.54       1.016
  -----------------------------------------------------------
  System                91.53      1.80      3.54       1.016
  
  
  ********************
  Link Flow Summary
  ********************
  
  -----------------------------------------------------------------------------
                                 Maximum  Time of Max   Maximum    Max/    Max/
                                  |Flow|   Occurrence   |Veloc|    Full    Full
  Link                 Type          CFS  days hr:min    ft/sec    Flow   Depth
  -----------------------------------------------------------------------------
  911                  CONDUIT      3.04     0  13:11      4.18    1.39    0.87
  913                  CONDUIT      1.50     0  14:00      2.56    0.88    0.70
  917                  CONDUIT      0.50     0  13:10      2.63    0.58    0.53
  929                  CONDUIT      0.50     0  13:31      3.81    0.33    0.40
  930                  CONDUIT      1.04     0  13:12      2.60    0.53    0.59
  934                  CONDUIT      1.98     0  13:07      4.09    0.62    1.00
  935                  CONDUIT      2.93     0  13:36      3.72    1.25    1.00
  936                  CONDUIT      2.92     0  13:10      3.72    1.40    1.00
  937                  CONDUIT      3.42     0  13:10      4.51    1.27    1.00
  938                  CONDUIT      2.00     0  14:00      4.21    0.63    0.58
  939                  CONDUIT      2.55     0  13:30      4.44    0.77    0.82
  940                  CONDUIT      4.62     0  13:11     13.26    0.66    1.00
  941                  CONDUIT      0.50     0  13:03      3.16    0.43    0.54
  942                  CONDUIT      1.00     0  14:00      3.28    1.00    0.82
  943                  CONDUIT      1.54     0  13:09      4.11    0.45    0.73
  FM100                CONDUIT      0.44     0  13:15      1.62    0.29    0.44
  FM101                CONDUIT      1.21     0  13:36      3.16    0.46    0.49
  FM101A               CONDUIT      0.86     0  13:21      2.69    0.53    0.53
  FM51                 CONDUIT      7.03     0  02:03    >50.00    4.26    0.83
  FM51A                CONDUIT      1.51     0  02:03      8.78    0.68    0.83
  FM51B                CONDUIT      1.37     0  02:03      7.95    0.68    0.83
  FM52                 CONDUIT      0.22     0  13:13      0.45    0.11    0.60
  FM52A                CONDUIT      0.22     0  13:33      0.45    0.11    0.60
  P51                  PUMP         2.00     0  00:00              1.00
  
  
  ***************************
  Flow Classification Summary
  ***************************
  
  -------------------------------------------------------------------------------------
                      Adjusted    ---------- Fraction of Time in Flow Class ---------- 
                       /Actual         Up    Down  Sub   Sup   Up    Down  Norm  Inlet 
  Conduit               Length    Dry  Dry   Dry   Crit  Crit  Crit  Crit  Ltd   Ctrl  
  -------------------------------------------------------------------------------------
  911                     1.00   0.00  0.00  0.00  0.96  0.04  0.00  0.00  0.00  0.00
  913                     1.00   0.00  0.00  0.00  0.00  0.00  0.00  1.00  0.00  0.00
  917                     1.00   0.00  0.00  0.00  0.00  0.00  0.00  1.00  0.00  0.00
  929                     1.00   0.00  0.00  0.00  0.00  0.00  0.00  1.00  0.00  0.00
  930                     1.00   0.00  0.00  0.00  0.32  0.00  0.00  0.68  0.14  0.00
  934                     1.00   0.00  0.00  0.00  0.28  0.10  0.00  0.62  0.20  0.00
  935                     1.00   0.00  0.00  0.00  0.33  0.00  0.00  0.67  0.17  0.00
  936                     1.00   0.00  0.00  0.00  0.14  0.00  0.00  0.86  0.00  0.00
  937                     1.00   0.00  0.00  0.00  0.28  0.00  0.00  0.72  0.02  0.00
  938                     1.00   0.00  0.00  0.00  0.00  0.00  0.00  1.00  0.00  0.00
  939                     1.00   0.00  0.00  0.00  0.03  0.00  0.00  0.97  0.03  0.00
  940                     1.00   0.00  0.00  0.00  0.15  0.85  0.00  0.00  0.13  0.00
  941                     1.00   0.00  0.00  0.00  0.04  0.00  0.00  0.96  0.04  0.00
  942                     1.00   0.00  0.00  0.00  0.00  0.00  0.00  1.00  0.00  0.00
  943                     1.00   0.00  0.00  0.00  0.12  0.00  0.00  0.88  0.12  0.00
  FM100                   1.00   0.00  0.00  0.00  1.00  0.00  0.00  0.00  0.97  0.00
  FM101                   1.00   0.00  0.00  0.00  0.00  0.00  0.00  1.00  0.00  0.00
  FM101A                  1.00   0.00  0.00  0.00  1.00  0.00  0.00  0.00  0.35  0.00
  FM51                    1.00   0.00  0.00  0.00  0.22  0.78  0.00  0.00  0.00  0.00
  FM51A                   1.00   0.00  0.00  0.00  0.61  0.39  0.00  0.00  1.00  0.00
  FM51B                   1.00   0.00  0.00  0.00  0.63  0.37  0.00  0.00  1.00  0.00
  FM52                    1.00   0.22  0.65  0.00  0.00  0.00  0.13  0.00  0.00  0.00
  FM52A                   1.00   0.22  0.65  0.00  0.00  0.00  0.13  0.00  0.00  0.00
  
  
  *************************
  Conduit Surcharge Summary
  *************************
  
  ----------------------------------------------------------------------------
                                                           Hours        Hours 
                         --------- Hours Full --------   Above Full   Capacity
  Conduit                Both Ends  Upstream  Dnstream   Normal Flow   Limited
  ----------------------------------------------------------------------------
  911                         0.01      7.03      0.01      7.29         0.01
  934                         2.32      2.32      3.01      0.01         0.01
  935                         3.06      3.06      3.14      2.83         2.84
  936                         3.09      3.24      3.09      5.15         3.08
  937                         3.14      3.23      3.43      2.95         2.99
  939                         0.01      0.01      0.58      0.01         0.01
  940                         0.54      0.65      3.38      0.01         0.01
  943                         0.01      0.01      0.80      0.01         0.01
  FM51                        0.01      0.01     22.98      4.04         0.01
  FM51A                       0.01      0.01     22.98      0.01         0.01
  FM51B                       0.01      0.01     22.98      0.01         0.01
  FM52                        0.01      0.01     20.96      0.01         0.01
  FM52A                       0.01      0.01     20.96      0.01         0.01
  
  
  ***************
  Pumping Summary
  ***************
  
  ---------------------------------------------------------------------------------------------------------
                                                  Min       Avg       Max     Total     Power    % Time Off
                        Percent   Number of      Flow      Flow      Flow    Volume     Usage    Pump Curve
  Pump                 Utilized   Start-Ups       CFS       CFS       CFS  10^6 gal     Kw-hr    Low   High
  ---------------------------------------------------------------------------------------------------------
  P51                     86.76           2      0.00      1.07      2.00     0.575     90.71    0.0   62.1
  

  Analysis begun on:  Tue Jun 23 20:36:05 2026
  Analysis ended on:  Tue Jun 23 20:36:06 2026
  Total elapsed time: 00:00:01