
  EPA STORM WATER MANAGEMENT MODEL - VERSION 5.2 (Build 5.2.4)
  ------------------------------------------------------------

   SW 1 0 20 
  HRSD Test model 
  WARNING 04: minimum elevation drop used for Conduit 2
  WARNING 04: minimum elevation drop used for Conduit 3
  WARNING 04: minimum elevation drop used for Conduit 4
  WARNING 04: minimum elevation drop used for Conduit 5
  WARNING 04: minimum elevation drop used for Conduit 6
  WARNING 04: minimum elevation drop used for Conduit 7
  WARNING 04: minimum elevation drop used for Conduit 8
  WARNING 04: minimum elevation drop used for Conduit 9
  WARNING 04: minimum elevation drop used for Conduit 10
  WARNING 04: minimum elevation drop used for Conduit 11
  WARNING 04: minimum elevation drop used for Conduit 12
  WARNING 04: minimum elevation drop used for Conduit 13
  WARNING 04: minimum elevation drop used for Conduit 14
  WARNING 04: minimum elevation drop used for Conduit 15
  WARNING 04: minimum elevation drop used for Conduit 16
  WARNING 04: minimum elevation drop used for Conduit 17
  WARNING 04: minimum elevation drop used for Conduit 18
  WARNING 04: minimum elevation drop used for Conduit 19
  WARNING 04: minimum elevation drop used for Conduit 20
  WARNING 04: minimum elevation drop used for Conduit 21
  WARNING 04: minimum elevation drop used for Conduit 22
  WARNING 04: minimum elevation drop used for Conduit 23
  WARNING 04: minimum elevation drop used for Conduit 24
  WARNING 04: minimum elevation drop used for Conduit 25
  WARNING 04: minimum elevation drop used for Conduit 26
  WARNING 04: minimum elevation drop used for Conduit 27
  WARNING 04: minimum elevation drop used for Conduit 28
  WARNING 04: minimum elevation drop used for Conduit 29
  WARNING 04: minimum elevation drop used for Conduit 30
  WARNING 04: minimum elevation drop used for Conduit 31
  WARNING 04: minimum elevation drop used for Conduit 32
  WARNING 04: minimum elevation drop used for Conduit 33
  WARNING 04: minimum elevation drop used for Conduit 34
  WARNING 04: minimum elevation drop used for Conduit 35
  WARNING 04: minimum elevation drop used for Conduit 36
  WARNING 04: minimum elevation drop used for Conduit 37
  WARNING 04: minimum elevation drop used for Conduit 38
  WARNING 04: minimum elevation drop used for Conduit 39
  WARNING 04: minimum elevation drop used for Conduit 40
  WARNING 04: minimum elevation drop used for Conduit 41
  WARNING 04: minimum elevation drop used for Conduit 42
  WARNING 04: minimum elevation drop used for Conduit 43
  WARNING 04: minimum elevation drop used for Conduit 44
  WARNING 04: minimum elevation drop used for Conduit 45
  WARNING 04: minimum elevation drop used for Conduit 46
  WARNING 04: minimum elevation drop used for Conduit 47
  WARNING 04: minimum elevation drop used for Conduit 48
  WARNING 04: minimum elevation drop used for Conduit 49
  WARNING 04: minimum elevation drop used for Conduit 50
  WARNING 04: minimum elevation drop used for Conduit 51
  WARNING 04: minimum elevation drop used for Conduit 52
  WARNING 04: minimum elevation drop used for Conduit 53
  WARNING 04: minimum elevation drop used for Conduit 54
  WARNING 04: minimum elevation drop used for Conduit 55
  WARNING 04: minimum elevation drop used for Conduit 56
  WARNING 04: minimum elevation drop used for Conduit 57
  WARNING 04: minimum elevation drop used for Conduit 58
  WARNING 04: minimum elevation drop used for Conduit 59
  WARNING 04: minimum elevation drop used for Conduit 60
  WARNING 04: minimum elevation drop used for Conduit 61
  WARNING 04: minimum elevation drop used for Conduit 62
  WARNING 04: minimum elevation drop used for Conduit 63
  WARNING 04: minimum elevation drop used for Conduit 64
  WARNING 04: minimum elevation drop used for Conduit 65
  WARNING 04: minimum elevation drop used for Conduit 66
  WARNING 04: minimum elevation drop used for Conduit 67
  WARNING 04: minimum elevation drop used for Conduit 68
  WARNING 04: minimum elevation drop used for Conduit 69
  WARNING 04: minimum elevation drop used for Conduit 70
  WARNING 04: minimum elevation drop used for Conduit 71
  WARNING 04: minimum elevation drop used for Conduit 72
  WARNING 04: minimum elevation drop used for Conduit 73
  WARNING 04: minimum elevation drop used for Conduit 74
  WARNING 04: minimum elevation drop used for Conduit 75
  WARNING 04: minimum elevation drop used for Conduit 76
  WARNING 04: minimum elevation drop used for Conduit 77
  WARNING 04: minimum elevation drop used for Conduit 78
  WARNING 04: minimum elevation drop used for Conduit 80
  WARNING 04: minimum elevation drop used for Conduit 81
  WARNING 04: minimum elevation drop used for Conduit 82
  WARNING 04: minimum elevation drop used for Conduit 83
  WARNING 04: minimum elevation drop used for Conduit 84
  WARNING 04: minimum elevation drop used for Conduit 85
  WARNING 04: minimum elevation drop used for Conduit 86
  WARNING 04: minimum elevation drop used for Conduit 87
  WARNING 04: minimum elevation drop used for Conduit 88
  WARNING 04: minimum elevation drop used for Conduit 89
  WARNING 04: minimum elevation drop used for Conduit 90
  WARNING 04: minimum elevation drop used for Conduit 91
  WARNING 04: minimum elevation drop used for Conduit 92
  WARNING 04: minimum elevation drop used for Conduit 93
  WARNING 04: minimum elevation drop used for Conduit 94
  WARNING 04: minimum elevation drop used for Conduit 95
  WARNING 04: minimum elevation drop used for Conduit 96
  WARNING 04: minimum elevation drop used for Conduit 97
  WARNING 04: minimum elevation drop used for Conduit 98
  WARNING 04: minimum elevation drop used for Conduit 99
  WARNING 04: minimum elevation drop used for Conduit 100
  WARNING 04: minimum elevation drop used for Conduit 101
  WARNING 04: minimum elevation drop used for Conduit 102
  WARNING 04: minimum elevation drop used for Conduit 103
  WARNING 04: minimum elevation drop used for Conduit 104
  WARNING 04: minimum elevation drop used for Conduit 105
  WARNING 04: minimum elevation drop used for Conduit 106
  WARNING 04: minimum elevation drop used for Conduit 107
  WARNING 04: minimum elevation drop used for Conduit 108
  WARNING 04: minimum elevation drop used for Conduit 109
  WARNING 04: minimum elevation drop used for Conduit 110
  WARNING 04: minimum elevation drop used for Conduit 111
  WARNING 04: minimum elevation drop used for Conduit 112
  WARNING 04: minimum elevation drop used for Conduit 113
  WARNING 04: minimum elevation drop used for Conduit 114
  WARNING 04: minimum elevation drop used for Conduit 115
  WARNING 04: minimum elevation drop used for Conduit 116
  WARNING 04: minimum elevation drop used for Conduit 117
  WARNING 04: minimum elevation drop used for Conduit 118
  WARNING 04: minimum elevation drop used for Conduit 119
  WARNING 04: minimum elevation drop used for Conduit 120
  WARNING 04: minimum elevation drop used for Conduit 121
  WARNING 04: minimum elevation drop used for Conduit 122
  WARNING 04: minimum elevation drop used for Conduit 123
  WARNING 04: minimum elevation drop used for Conduit 124
  WARNING 04: minimum elevation drop used for Conduit 125
  WARNING 04: minimum elevation drop used for Conduit 126
  WARNING 04: minimum elevation drop used for Conduit 127
  WARNING 04: minimum elevation drop used for Conduit 128
  WARNING 04: minimum elevation drop used for Conduit 129
  WARNING 04: minimum elevation drop used for Conduit 130
  WARNING 04: minimum elevation drop used for Conduit 131
  WARNING 04: minimum elevation drop used for Conduit 132
  WARNING 04: minimum elevation drop used for Conduit 133
  WARNING 04: minimum elevation drop used for Conduit 134
  WARNING 04: minimum elevation drop used for Conduit 135
  WARNING 04: minimum elevation drop used for Conduit 136
  WARNING 04: minimum elevation drop used for Conduit 137
  WARNING 04: minimum elevation drop used for Conduit 138
  WARNING 04: minimum elevation drop used for Conduit 139
  WARNING 04: minimum elevation drop used for Conduit 140
  WARNING 04: minimum elevation drop used for Conduit 141
  WARNING 04: minimum elevation drop used for Conduit 142
  WARNING 04: minimum elevation drop used for Conduit 143
  WARNING 04: minimum elevation drop used for Conduit 144
  WARNING 04: minimum elevation drop used for Conduit 145
  WARNING 04: minimum elevation drop used for Conduit 146
  WARNING 04: minimum elevation drop used for Conduit 147
  WARNING 04: minimum elevation drop used for Conduit 148
  WARNING 04: minimum elevation drop used for Conduit 152
  WARNING 04: minimum elevation drop used for Conduit 153
  WARNING 04: minimum elevation drop used for Conduit 154
  WARNING 04: minimum elevation drop used for Conduit 155
  WARNING 04: minimum elevation drop used for Conduit 156
  WARNING 04: minimum elevation drop used for Conduit 157
  WARNING 04: minimum elevation drop used for Conduit 158
  WARNING 04: minimum elevation drop used for Conduit 159
  WARNING 04: minimum elevation drop used for Conduit 160
  WARNING 04: minimum elevation drop used for Conduit 161
  WARNING 04: minimum elevation drop used for Conduit 162
  WARNING 04: minimum elevation drop used for Conduit 163
  WARNING 04: minimum elevation drop used for Conduit 164
  WARNING 04: minimum elevation drop used for Conduit 165
  WARNING 04: minimum elevation drop used for Conduit 166
  WARNING 04: minimum elevation drop used for Conduit 167
  WARNING 04: minimum elevation drop used for Conduit 168
  WARNING 04: minimum elevation drop used for Conduit 169
  WARNING 04: minimum elevation drop used for Conduit 170
  WARNING 04: minimum elevation drop used for Conduit 171
  WARNING 04: minimum elevation drop used for Conduit 172
  WARNING 04: minimum elevation drop used for Conduit 173
  WARNING 04: minimum elevation drop used for Conduit 174
  WARNING 04: minimum elevation drop used for Conduit 175
  WARNING 04: minimum elevation drop used for Conduit 176
  WARNING 04: minimum elevation drop used for Conduit 177
  WARNING 04: minimum elevation drop used for Conduit 178
  WARNING 04: minimum elevation drop used for Conduit 179
  WARNING 04: minimum elevation drop used for Conduit 180
  WARNING 04: minimum elevation drop used for Conduit 181
  WARNING 04: minimum elevation drop used for Conduit 182
  WARNING 04: minimum elevation drop used for Conduit 183
  WARNING 04: minimum elevation drop used for Conduit 184
  WARNING 04: minimum elevation drop used for Conduit 185
  WARNING 04: minimum elevation drop used for Conduit 186
  WARNING 04: minimum elevation drop used for Conduit 187
  WARNING 04: minimum elevation drop used for Conduit 188
  WARNING 04: minimum elevation drop used for Conduit 189
  WARNING 04: minimum elevation drop used for Conduit 190
  WARNING 04: minimum elevation drop used for Conduit 191
  WARNING 04: minimum elevation drop used for Conduit 192
  WARNING 04: minimum elevation drop used for Conduit 193
  WARNING 04: minimum elevation drop used for Conduit 194
  WARNING 04: minimum elevation drop used for Conduit 195
  WARNING 04: minimum elevation drop used for Conduit 196
  WARNING 04: minimum elevation drop used for Conduit 197
  WARNING 04: minimum elevation drop used for Conduit 198
  WARNING 04: minimum elevation drop used for Conduit 199
  WARNING 04: minimum elevation drop used for Conduit 200
  WARNING 04: minimum elevation drop used for Conduit 201
  WARNING 04: minimum elevation drop used for Conduit 202
  WARNING 04: minimum elevation drop used for Conduit 203
  WARNING 04: minimum elevation drop used for Conduit 204
  WARNING 04: minimum elevation drop used for Conduit 205
  WARNING 04: minimum elevation drop used for Conduit 206
  WARNING 04: minimum elevation drop used for Conduit 207
  WARNING 04: minimum elevation drop used for Conduit 208
  WARNING 04: minimum elevation drop used for Conduit 209
  WARNING 04: minimum elevation drop used for Conduit 210
  WARNING 04: minimum elevation drop used for Conduit 211
  WARNING 04: minimum elevation drop used for Conduit 212
  WARNING 04: minimum elevation drop used for Conduit 213
  WARNING 04: minimum elevation drop used for Conduit 214
  WARNING 04: minimum elevation drop used for Conduit 215
  WARNING 04: minimum elevation drop used for Conduit 216
  WARNING 04: minimum elevation drop used for Conduit 217
  WARNING 04: minimum elevation drop used for Conduit 218
  WARNING 04: minimum elevation drop used for Conduit 219
  WARNING 04: minimum elevation drop used for Conduit 220
  WARNING 04: minimum elevation drop used for Conduit 221
  WARNING 04: minimum elevation drop used for Conduit 222
  WARNING 04: minimum elevation drop used for Conduit 223
  WARNING 04: minimum elevation drop used for Conduit 224
  WARNING 04: minimum elevation drop used for Conduit 225
  WARNING 04: minimum elevation drop used for Conduit 226
  WARNING 04: minimum elevation drop used for Conduit 227
  WARNING 04: minimum elevation drop used for Conduit 228
  WARNING 04: minimum elevation drop used for Conduit 230
  WARNING 04: minimum elevation drop used for Conduit 231
  WARNING 04: minimum elevation drop used for Conduit 232
  WARNING 04: minimum elevation drop used for Conduit 233
  WARNING 04: minimum elevation drop used for Conduit 234
  WARNING 04: minimum elevation drop used for Conduit 235
  WARNING 04: minimum elevation drop used for Conduit 236
  WARNING 04: minimum elevation drop used for Conduit 237
  WARNING 04: minimum elevation drop used for Conduit 238
  WARNING 04: minimum elevation drop used for Conduit 239
  WARNING 04: minimum elevation drop used for Conduit 240
  WARNING 04: minimum elevation drop used for Conduit 241
  WARNING 04: minimum elevation drop used for Conduit 242
  WARNING 04: minimum elevation drop used for Conduit 243
  WARNING 04: minimum elevation drop used for Conduit 244
  WARNING 04: minimum elevation drop used for Conduit 245
  WARNING 04: minimum elevation drop used for Conduit 246
  WARNING 04: minimum elevation drop used for Conduit 247
  WARNING 04: minimum elevation drop used for Conduit 248
  WARNING 04: minimum elevation drop used for Conduit 249
  WARNING 04: minimum elevation drop used for Conduit 250
  WARNING 04: minimum elevation drop used for Conduit 251
  WARNING 04: minimum elevation drop used for Conduit 252
  WARNING 04: minimum elevation drop used for Conduit 253
  WARNING 04: minimum elevation drop used for Conduit 254
  WARNING 04: minimum elevation drop used for Conduit 255
  WARNING 04: minimum elevation drop used for Conduit 256
  WARNING 04: minimum elevation drop used for Conduit 257
  WARNING 04: minimum elevation drop used for Conduit 258
  WARNING 04: minimum elevation drop used for Conduit 259
  WARNING 04: minimum elevation drop used for Conduit 260
  WARNING 04: minimum elevation drop used for Conduit 261
  WARNING 04: minimum elevation drop used for Conduit 262
  WARNING 04: minimum elevation drop used for Conduit 263
  WARNING 04: minimum elevation drop used for Conduit 264
  WARNING 04: minimum elevation drop used for Conduit 265
  WARNING 04: minimum elevation drop used for Conduit 266
  WARNING 04: minimum elevation drop used for Conduit 267
  WARNING 04: minimum elevation drop used for Conduit 268
  WARNING 04: minimum elevation drop used for Conduit 269
  WARNING 04: minimum elevation drop used for Conduit 270
  WARNING 04: minimum elevation drop used for Conduit 271
  WARNING 04: minimum elevation drop used for Conduit 272
  WARNING 04: minimum elevation drop used for Conduit 273
  WARNING 04: minimum elevation drop used for Conduit 274
  WARNING 04: minimum elevation drop used for Conduit 275
  WARNING 04: minimum elevation drop used for Conduit 276
  WARNING 04: minimum elevation drop used for Conduit 277
  WARNING 04: minimum elevation drop used for Conduit 278
  WARNING 04: minimum elevation drop used for Conduit 279
  WARNING 04: minimum elevation drop used for Conduit 280
  WARNING 04: minimum elevation drop used for Conduit 281
  WARNING 04: minimum elevation drop used for Conduit 282
  WARNING 04: minimum elevation drop used for Conduit 283
  WARNING 04: minimum elevation drop used for Conduit 284
  WARNING 04: minimum elevation drop used for Conduit 285
  WARNING 04: minimum elevation drop used for Conduit 286
  WARNING 04: minimum elevation drop used for Conduit 287
  WARNING 04: minimum elevation drop used for Conduit 288
  WARNING 04: minimum elevation drop used for Conduit 289
  WARNING 04: minimum elevation drop used for Conduit 290
  WARNING 04: minimum elevation drop used for Conduit 291
  WARNING 04: minimum elevation drop used for Conduit 292
  WARNING 04: minimum elevation drop used for Conduit 293
  WARNING 04: minimum elevation drop used for Conduit 294
  WARNING 04: minimum elevation drop used for Conduit 295
  WARNING 04: minimum elevation drop used for Conduit 296
  WARNING 04: minimum elevation drop used for Conduit 297
  WARNING 04: minimum elevation drop used for Conduit 298
  
  *************
  Element Count
  *************
  Number of rain gages ...... 0
  Number of subcatchments ... 0
  Number of nodes ........... 299
  Number of links ........... 298
  Number of pollutants ...... 0
  Number of land uses ....... 0
  
  
  ************
  Node Summary
  ************
                                           Invert      Max.    Ponded    External
  Name                 Type                 Elev.     Depth      Area    Inflow  
  -------------------------------------------------------------------------------
  2                    JUNCTION              0.00      3.00       0.0
  3                    JUNCTION              0.00      3.00       0.0
  4                    JUNCTION              0.00      3.00       0.0
  5                    JUNCTION              0.00      3.00       0.0
  6                    JUNCTION              0.00      3.00       0.0
  7                    JUNCTION              0.00      3.00       0.0
  8                    JUNCTION              0.00      3.00       0.0
  9                    JUNCTION              0.00      3.00       0.0
  10                   JUNCTION              0.00      3.00       0.0
  11                   JUNCTION              0.00      3.00       0.0
  12                   JUNCTION              0.00      3.00       0.0
  13                   JUNCTION              0.00      3.00       0.0
  14                   JUNCTION              0.00      3.00       0.0
  15                   JUNCTION              0.00      3.00       0.0
  16                   JUNCTION              0.00      3.00       0.0
  17                   JUNCTION              0.00      3.00       0.0
  18                   JUNCTION              0.00      3.00       0.0
  19                   JUNCTION              0.00      3.00       0.0
  20                   JUNCTION              0.00      3.00       0.0
  21                   JUNCTION              0.00      3.00       0.0
  22                   JUNCTION              0.00      3.00       0.0
  23                   JUNCTION              0.00      3.00       0.0
  24                   JUNCTION              0.00      3.00       0.0
  25                   JUNCTION              0.00      3.00       0.0
  26                   JUNCTION              0.00      3.00       0.0
  27                   JUNCTION              0.00      3.00       0.0
  28                   JUNCTION              0.00      3.00       0.0
  29                   JUNCTION              0.00      3.00       0.0
  30                   JUNCTION              0.00      3.00       0.0
  31                   JUNCTION              0.00      3.00       0.0
  32                   JUNCTION              0.00      3.00       0.0
  33                   JUNCTION              0.00      3.00       0.0
  34                   JUNCTION              0.00      3.00       0.0
  35                   JUNCTION              0.00      3.00       0.0
  36                   JUNCTION              0.00      3.00       0.0
  37                   JUNCTION              0.00      3.00       0.0
  38                   JUNCTION              0.00      3.00       0.0
  39                   JUNCTION              0.00      3.00       0.0
  40                   JUNCTION              0.00      3.00       0.0
  41                   JUNCTION              0.00      3.00       0.0
  42                   JUNCTION              0.00      3.00       0.0
  43                   JUNCTION              0.00      3.00       0.0
  44                   JUNCTION              0.00      3.00       0.0
  45                   JUNCTION              0.00      3.00       0.0
  46                   JUNCTION              0.00      3.00       0.0
  47                   JUNCTION              0.00      3.00       0.0
  48                   JUNCTION              0.00      3.00       0.0
  49                   JUNCTION              0.00      3.00       0.0
  50                   JUNCTION              0.00      3.00       0.0
  51                   JUNCTION              0.00      3.00       0.0
  52                   JUNCTION              0.00      3.00       0.0
  53                   JUNCTION              0.00      3.00       0.0
  54                   JUNCTION              0.00      3.00       0.0
  55                   JUNCTION              0.00      3.00       0.0
  56                   JUNCTION              0.00      3.00       0.0
  57                   JUNCTION              0.00      3.00       0.0
  58                   JUNCTION              0.00      3.00       0.0
  59                   JUNCTION              0.00      3.00       0.0
  60                   JUNCTION              0.00      3.00       0.0
  61                   JUNCTION              0.00      3.00       0.0
  62                   JUNCTION              0.00      3.00       0.0
  63                   JUNCTION              0.00      3.00       0.0
  64                   JUNCTION              0.00      3.00       0.0
  65                   JUNCTION              0.00      3.00       0.0
  66                   JUNCTION              0.00      3.00       0.0
  67                   JUNCTION              0.00      3.00       0.0
  68                   JUNCTION              0.00      3.00       0.0
  69                   JUNCTION              0.00      3.00       0.0
  70                   JUNCTION              0.00      3.00       0.0
  71                   JUNCTION              0.00      3.00       0.0
  72                   JUNCTION              0.00      3.00       0.0
  73                   JUNCTION              0.00      3.00       0.0
  74                   JUNCTION              0.00      3.00       0.0
  75                   JUNCTION              0.00      3.00       0.0
  76                   JUNCTION              0.00      3.00       0.0
  77                   JUNCTION              0.00      3.00       0.0
  78                   JUNCTION              0.00      3.00       0.0
  80                   JUNCTION              0.00      3.00       0.0
  82                   JUNCTION              0.00      3.00       0.0
  83                   JUNCTION              0.00      3.00       0.0
  84                   JUNCTION              0.00      3.00       0.0
  85                   JUNCTION              0.00      3.00       0.0
  86                   JUNCTION              0.00      3.00       0.0
  87                   JUNCTION              0.00      3.00       0.0
  88                   JUNCTION              0.00      3.00       0.0
  89                   JUNCTION              0.00      3.00       0.0
  90                   JUNCTION              0.00      3.00       0.0
  91                   JUNCTION              0.00      3.00       0.0
  92                   JUNCTION              0.00      3.00       0.0
  93                   JUNCTION              0.00      3.00       0.0
  94                   JUNCTION              0.00      3.00       0.0
  95                   JUNCTION              0.00      3.00       0.0
  96                   JUNCTION              0.00      3.00       0.0
  97                   JUNCTION              0.00      3.00       0.0
  98                   JUNCTION              0.00      3.00       0.0
  99                   JUNCTION              0.00      3.00       0.0
  100                  JUNCTION              0.00      3.00       0.0
  101                  JUNCTION              0.00      3.00       0.0
  102                  JUNCTION              0.00      3.00       0.0
  103                  JUNCTION              0.00      3.00       0.0
  104                  JUNCTION              0.00      3.00       0.0
  105                  JUNCTION              0.00      3.00       0.0
  106                  JUNCTION              0.00      3.00       0.0
  107                  JUNCTION              0.00      3.00       0.0
  108                  JUNCTION              0.00      3.00       0.0
  109                  JUNCTION              0.00      3.00       0.0
  110                  JUNCTION              0.00      3.00       0.0
  111                  JUNCTION              0.00      3.00       0.0
  112                  JUNCTION              0.00      3.00       0.0
  113                  JUNCTION              0.00      3.00       0.0
  114                  JUNCTION              0.00      3.00       0.0
  115                  JUNCTION              0.00      3.00       0.0
  116                  JUNCTION              0.00      3.00       0.0
  117                  JUNCTION              0.00      3.00       0.0
  118                  JUNCTION              0.00      3.00       0.0
  119                  JUNCTION              0.00      3.00       0.0
  120                  JUNCTION              0.00      3.00       0.0
  121                  JUNCTION              0.00      3.00       0.0
  122                  JUNCTION              0.00      3.00       0.0
  123                  JUNCTION              0.00      3.00       0.0
  124                  JUNCTION              0.00      3.00       0.0
  125                  JUNCTION              0.00      3.00       0.0
  126                  JUNCTION              0.00      3.00       0.0
  127                  JUNCTION              0.00      3.00       0.0
  128                  JUNCTION              0.00      3.00       0.0
  129                  JUNCTION              0.00      3.00       0.0
  130                  JUNCTION              0.00      3.00       0.0
  131                  JUNCTION              0.00      3.00       0.0
  132                  JUNCTION              0.00      3.00       0.0
  133                  JUNCTION              0.00      3.00       0.0
  134                  JUNCTION              0.00      3.00       0.0
  135                  JUNCTION              0.00      3.00       0.0
  136                  JUNCTION              0.00      3.00       0.0
  137                  JUNCTION              0.00      3.00       0.0
  138                  JUNCTION              0.00      3.00       0.0
  139                  JUNCTION              0.00      3.00       0.0
  140                  JUNCTION              0.00      3.00       0.0
  141                  JUNCTION              0.00      3.00       0.0
  142                  JUNCTION              0.00      3.00       0.0
  143                  JUNCTION              0.00      3.00       0.0
  144                  JUNCTION              0.00      3.00       0.0
  145                  JUNCTION              0.00      3.00       0.0
  146                  JUNCTION              0.00      3.00       0.0
  147                  JUNCTION              0.00      3.00       0.0
  148                  JUNCTION              0.00      3.00       0.0
  149                  JUNCTION              0.00      3.00       0.0
  152                  JUNCTION              0.00      3.00       0.0
  153                  JUNCTION              0.00      3.00       0.0
  154                  JUNCTION              0.00      3.00       0.0
  155                  JUNCTION              0.00      3.00       0.0
  156                  JUNCTION              0.00      3.00       0.0
  157                  JUNCTION              0.00      3.00       0.0
  158                  JUNCTION              0.00      3.00       0.0
  159                  JUNCTION              0.00      3.00       0.0
  160                  JUNCTION              0.00      3.00       0.0
  161                  JUNCTION              0.00      3.00       0.0
  162                  JUNCTION              0.00      3.00       0.0
  163                  JUNCTION              0.00      3.00       0.0
  164                  JUNCTION              0.00      3.00       0.0
  165                  JUNCTION              0.00      3.00       0.0
  166                  JUNCTION              0.00      3.00       0.0
  167                  JUNCTION              0.00      3.00       0.0
  168                  JUNCTION              0.00      3.00       0.0
  169                  JUNCTION              0.00      3.00       0.0
  170                  JUNCTION              0.00      3.00       0.0
  171                  JUNCTION              0.00      3.00       0.0
  172                  JUNCTION              0.00      3.00       0.0
  173                  JUNCTION              0.00      3.00       0.0
  174                  JUNCTION              0.00      3.00       0.0
  175                  JUNCTION              0.00      3.00       0.0
  176                  JUNCTION              0.00      3.00       0.0
  177                  JUNCTION              0.00      3.00       0.0
  178                  JUNCTION              0.00      3.00       0.0
  179                  JUNCTION              0.00      3.00       0.0
  180                  JUNCTION              0.00      3.00       0.0
  181                  JUNCTION              0.00      3.00       0.0
  182                  JUNCTION              0.00      3.00       0.0
  183                  JUNCTION              0.00      3.00       0.0
  184                  JUNCTION              0.00      3.00       0.0
  185                  JUNCTION              0.00      3.00       0.0
  186                  JUNCTION              0.00      3.00       0.0
  187                  JUNCTION              0.00      3.00       0.0
  188                  JUNCTION              0.00      3.00       0.0
  189                  JUNCTION              0.00      3.00       0.0
  190                  JUNCTION              0.00      3.00       0.0
  191                  JUNCTION              0.00      3.00       0.0
  192                  JUNCTION              0.00      3.00       0.0
  193                  JUNCTION              0.00      3.00       0.0
  194                  JUNCTION              0.00      3.00       0.0
  195                  JUNCTION              0.00      3.00       0.0
  196                  JUNCTION              0.00      3.00       0.0
  197                  JUNCTION              0.00      3.00       0.0
  198                  JUNCTION              0.00      3.00       0.0
  199                  JUNCTION              0.00      3.00       0.0
  200                  JUNCTION              0.00      3.00       0.0
  201                  JUNCTION              0.00      3.00       0.0
  202                  JUNCTION              0.00      3.00       0.0
  203                  JUNCTION              0.00      3.00       0.0
  204                  JUNCTION              0.00      3.00       0.0
  205                  JUNCTION              0.00      3.00       0.0
  206                  JUNCTION              0.00      3.00       0.0
  207                  JUNCTION              0.00      3.00       0.0
  208                  JUNCTION              0.00      3.00       0.0
  209                  JUNCTION              0.00      3.00       0.0
  210                  JUNCTION              0.00      3.00       0.0
  211                  JUNCTION              0.00      3.00       0.0
  212                  JUNCTION              0.00      3.00       0.0
  213                  JUNCTION              0.00      3.00       0.0
  214                  JUNCTION              0.00      3.00       0.0
  215                  JUNCTION              0.00      3.00       0.0
  216                  JUNCTION              0.00      3.00       0.0
  217                  JUNCTION              0.00      3.00       0.0
  218                  JUNCTION              0.00      3.00       0.0
  219                  JUNCTION              0.00      3.00       0.0
  220                  JUNCTION              0.00      3.00       0.0
  221                  JUNCTION              0.00      3.00       0.0
  222                  JUNCTION              0.00      3.00       0.0
  223                  JUNCTION              0.00      3.00       0.0
  224                  JUNCTION              0.00      3.00       0.0
  225                  JUNCTION              0.00      3.00       0.0
  226                  JUNCTION              0.00      3.00       0.0
  227                  JUNCTION              0.00      3.00       0.0
  228                  JUNCTION              0.00      3.00       0.0
  230                  JUNCTION              0.00      3.00       0.0
  231                  JUNCTION              0.00      3.00       0.0
  232                  JUNCTION              0.00      3.00       0.0
  233                  JUNCTION              0.00      3.00       0.0
  234                  JUNCTION              0.00      3.00       0.0
  235                  JUNCTION              0.00      3.00       0.0
  236                  JUNCTION              0.00      3.00       0.0
  237                  JUNCTION              0.00      3.00       0.0
  238                  JUNCTION              0.00      3.00       0.0
  239                  JUNCTION              0.00      3.00       0.0
  240                  JUNCTION              0.00      3.00       0.0
  241                  JUNCTION              0.00      3.00       0.0
  242                  JUNCTION              0.00      3.00       0.0
  243                  JUNCTION              0.00      3.00       0.0
  244                  JUNCTION              0.00      3.00       0.0
  245                  JUNCTION              0.00      3.00       0.0
  246                  JUNCTION              0.00      3.00       0.0
  247                  JUNCTION              0.00      3.00       0.0
  248                  JUNCTION              0.00      3.00       0.0
  249                  JUNCTION              0.00      3.00       0.0
  250                  JUNCTION              0.00      3.00       0.0
  251                  JUNCTION              0.00      3.00       0.0
  252                  JUNCTION              0.00      3.00       0.0
  253                  JUNCTION              0.00      3.00       0.0
  254                  JUNCTION              0.00      3.00       0.0
  255                  JUNCTION              0.00      3.00       0.0
  256                  JUNCTION              0.00      3.00       0.0
  257                  JUNCTION              0.00      3.00       0.0
  258                  JUNCTION              0.00      3.00       0.0
  259                  JUNCTION              0.00      3.00       0.0
  260                  JUNCTION              0.00      3.00       0.0
  261                  JUNCTION              0.00      3.00       0.0
  262                  JUNCTION              0.00      3.00       0.0
  263                  JUNCTION              0.00      3.00       0.0
  264                  JUNCTION              0.00      3.00       0.0
  265                  JUNCTION              0.00      3.00       0.0
  266                  JUNCTION              0.00      3.00       0.0
  267                  JUNCTION              0.00      3.00       0.0
  268                  JUNCTION              0.00      3.00       0.0
  269                  JUNCTION              0.00      3.00       0.0
  270                  JUNCTION              0.00      3.00       0.0
  271                  JUNCTION              0.00      3.00       0.0
  272                  JUNCTION              0.00      3.00       0.0
  273                  JUNCTION              0.00      3.00       0.0
  274                  JUNCTION              0.00      3.00       0.0
  275                  JUNCTION              0.00      3.00       0.0
  276                  JUNCTION              0.00      3.00       0.0
  277                  JUNCTION              0.00      3.00       0.0
  278                  JUNCTION              0.00      3.00       0.0
  279                  JUNCTION              0.00      3.00       0.0
  280                  JUNCTION              0.00      3.00       0.0
  281                  JUNCTION              0.00      3.00       0.0
  282                  JUNCTION              0.00      3.00       0.0
  283                  JUNCTION              0.00      3.00       0.0
  284                  JUNCTION              0.00      3.00       0.0
  285                  JUNCTION              0.00      3.00       0.0
  286                  JUNCTION              0.00      3.00       0.0
  287                  JUNCTION              0.00      3.00       0.0
  288                  JUNCTION              0.00      3.00       0.0
  289                  JUNCTION              0.00      3.00       0.0
  290                  JUNCTION              0.00      3.00       0.0
  291                  JUNCTION              0.00      3.00       0.0
  292                  JUNCTION              0.00      3.00       0.0
  293                  JUNCTION              0.00      3.00       0.0
  294                  JUNCTION              0.00      3.00       0.0
  295                  JUNCTION              0.00      3.00       0.0
  296                  JUNCTION              0.00      3.00       0.0
  297                  JUNCTION              0.00      3.00       0.0
  298                  JUNCTION              0.00      3.00       0.0
  299                  JUNCTION              0.00      3.00       0.0
  150                  OUTFALL               0.00      0.00       0.0
  300                  OUTFALL               0.00      0.00       0.0
  1                    STORAGE             -10.00     60.00       0.0    Yes
  151                  STORAGE             -10.00     60.00       0.0    Yes
  229                  STORAGE             -10.00     60.00       0.0
  79                   STORAGE             -10.00     60.00       0.0
  
  
  ************
  Link Summary
  ************
  Name             From Node        To Node          Type            Length    %Slope Roughness
  ---------------------------------------------------------------------------------------------
  2                2                3                CONDUIT          500.0    0.0002    0.0130
  3                3                4                CONDUIT          500.0    0.0002    0.0130
  4                4                5                CONDUIT          500.0    0.0002    0.0130
  5                5                6                CONDUIT          500.0    0.0002    0.0130
  6                6                7                CONDUIT          500.0    0.0002    0.0130
  7                7                8                CONDUIT          500.0    0.0002    0.0130
  8                8                9                CONDUIT          500.0    0.0002    0.0130
  9                9                10               CONDUIT          500.0    0.0002    0.0130
  10               10               11               CONDUIT          500.0    0.0002    0.0130
  11               11               12               CONDUIT          500.0    0.0002    0.0130
  12               12               13               CONDUIT          500.0    0.0002    0.0130
  13               13               14               CONDUIT          500.0    0.0002    0.0130
  14               14               15               CONDUIT          500.0    0.0002    0.0130
  15               15               16               CONDUIT          500.0    0.0002    0.0130
  16               16               17               CONDUIT          500.0    0.0002    0.0130
  17               17               18               CONDUIT          500.0    0.0002    0.0130
  18               18               19               CONDUIT          500.0    0.0002    0.0130
  19               19               20               CONDUIT          500.0    0.0002    0.0130
  20               20               21               CONDUIT          500.0    0.0002    0.0130
  21               21               22               CONDUIT          500.0    0.0002    0.0130
  22               22               23               CONDUIT          500.0    0.0002    0.0130
  23               23               24               CONDUIT          500.0    0.0002    0.0130
  24               24               25               CONDUIT          500.0    0.0002    0.0130
  25               25               26               CONDUIT          500.0    0.0002    0.0130
  26               26               27               CONDUIT          500.0    0.0002    0.0130
  27               27               28               CONDUIT          500.0    0.0002    0.0130
  28               28               29               CONDUIT          500.0    0.0002    0.0130
  29               29               30               CONDUIT          500.0    0.0002    0.0130
  30               30               31               CONDUIT          500.0    0.0002    0.0130
  31               31               32               CONDUIT          500.0    0.0002    0.0130
  32               32               33               CONDUIT          500.0    0.0002    0.0130
  33               33               34               CONDUIT          500.0    0.0002    0.0130
  34               34               35               CONDUIT          500.0    0.0002    0.0130
  35               35               36               CONDUIT          500.0    0.0002    0.0130
  36               36               37               CONDUIT          500.0    0.0002    0.0130
  37               37               38               CONDUIT          500.0    0.0002    0.0130
  38               38               39               CONDUIT          500.0    0.0002    0.0130
  39               39               40               CONDUIT          500.0    0.0002    0.0130
  40               40               41               CONDUIT          500.0    0.0002    0.0130
  41               41               42               CONDUIT          500.0    0.0002    0.0130
  42               42               43               CONDUIT          500.0    0.0002    0.0130
  43               43               44               CONDUIT          500.0    0.0002    0.0130
  44               44               45               CONDUIT          500.0    0.0002    0.0130
  45               45               46               CONDUIT          500.0    0.0002    0.0130
  46               46               47               CONDUIT          500.0    0.0002    0.0130
  47               47               48               CONDUIT          500.0    0.0002    0.0130
  48               48               49               CONDUIT          500.0    0.0002    0.0130
  49               49               50               CONDUIT          500.0    0.0002    0.0130
  50               50               51               CONDUIT          500.0    0.0002    0.0130
  51               51               52               CONDUIT          500.0    0.0002    0.0130
  52               52               53               CONDUIT          500.0    0.0002    0.0130
  53               53               54               CONDUIT          500.0    0.0002    0.0130
  54               54               55               CONDUIT          500.0    0.0002    0.0130
  55               55               56               CONDUIT          500.0    0.0002    0.0130
  56               56               57               CONDUIT          500.0    0.0002    0.0130
  57               57               58               CONDUIT          500.0    0.0002    0.0130
  58               58               59               CONDUIT          500.0    0.0002    0.0130
  59               59               60               CONDUIT          500.0    0.0002    0.0130
  60               60               61               CONDUIT          500.0    0.0002    0.0130
  61               61               62               CONDUIT          500.0    0.0002    0.0130
  62               62               63               CONDUIT          500.0    0.0002    0.0130
  63               63               64               CONDUIT          500.0    0.0002    0.0130
  64               64               65               CONDUIT          500.0    0.0002    0.0130
  65               65               66               CONDUIT          500.0    0.0002    0.0130
  66               66               67               CONDUIT          500.0    0.0002    0.0130
  67               67               68               CONDUIT          500.0    0.0002    0.0130
  68               68               69               CONDUIT          500.0    0.0002    0.0130
  69               69               70               CONDUIT          500.0    0.0002    0.0130
  70               70               71               CONDUIT          500.0    0.0002    0.0130
  71               71               72               CONDUIT          500.0    0.0002    0.0130
  72               72               73               CONDUIT          500.0    0.0002    0.0130
  73               73               74               CONDUIT          500.0    0.0002    0.0130
  74               74               75               CONDUIT          500.0    0.0002    0.0130
  75               75               76               CONDUIT          500.0    0.0002    0.0130
  76               76               77               CONDUIT          500.0    0.0002    0.0130
  77               77               78               CONDUIT          500.0    0.0002    0.0130
  78               78               79               CONDUIT          500.0    0.0002    0.0130
  80               80               231              CONDUIT          500.0    0.0002    0.0130
  81               231              82               CONDUIT          500.0    0.0002    0.0130
  82               82               83               CONDUIT          500.0    0.0002    0.0130
  83               83               84               CONDUIT          500.0    0.0002    0.0130
  84               84               85               CONDUIT          500.0    0.0002    0.0130
  85               85               86               CONDUIT          500.0    0.0002    0.0130
  86               86               87               CONDUIT          500.0    0.0002    0.0130
  87               87               88               CONDUIT          500.0    0.0002    0.0130
  88               88               89               CONDUIT          500.0    0.0002    0.0130
  89               89               90               CONDUIT          500.0    0.0002    0.0130
  90               90               91               CONDUIT          500.0    0.0002    0.0130
  91               91               92               CONDUIT          500.0    0.0002    0.0130
  92               92               93               CONDUIT          500.0    0.0002    0.0130
  93               93               94               CONDUIT          500.0    0.0002    0.0130
  94               94               95               CONDUIT          500.0    0.0002    0.0130
  95               95               96               CONDUIT          500.0    0.0002    0.0130
  96               96               97               CONDUIT          500.0    0.0002    0.0130
  97               97               98               CONDUIT          500.0    0.0002    0.0130
  98               98               99               CONDUIT          500.0    0.0002    0.0130
  99               99               100              CONDUIT          500.0    0.0002    0.0130
  100              100              101              CONDUIT          500.0    0.0002    0.0130
  101              101              102              CONDUIT          500.0    0.0002    0.0130
  102              102              103              CONDUIT          500.0    0.0002    0.0130
  103              103              104              CONDUIT          500.0    0.0002    0.0130
  104              104              105              CONDUIT          500.0    0.0002    0.0130
  105              105              106              CONDUIT          500.0    0.0002    0.0130
  106              106              107              CONDUIT          500.0    0.0002    0.0130
  107              107              108              CONDUIT          500.0    0.0002    0.0130
  108              108              109              CONDUIT          500.0    0.0002    0.0130
  109              109              110              CONDUIT          500.0    0.0002    0.0130
  110              110              111              CONDUIT          500.0    0.0002    0.0130
  111              111              112              CONDUIT          500.0    0.0002    0.0130
  112              112              113              CONDUIT          500.0    0.0002    0.0130
  113              113              114              CONDUIT          500.0    0.0002    0.0130
  114              114              115              CONDUIT          500.0    0.0002    0.0130
  115              115              116              CONDUIT          500.0    0.0002    0.0130
  116              116              117              CONDUIT          500.0    0.0002    0.0130
  117              117              118              CONDUIT          500.0    0.0002    0.0130
  118              118              119              CONDUIT          500.0    0.0002    0.0130
  119              119              120              CONDUIT          500.0    0.0002    0.0130
  120              120              121              CONDUIT          500.0    0.0002    0.0130
  121              121              122              CONDUIT          500.0    0.0002    0.0130
  122              122              123              CONDUIT          500.0    0.0002    0.0130
  123              123              124              CONDUIT          500.0    0.0002    0.0130
  124              124              125              CONDUIT          500.0    0.0002    0.0130
  125              125              126              CONDUIT          500.0    0.0002    0.0130
  126              126              127              CONDUIT          500.0    0.0002    0.0130
  127              127              128              CONDUIT          500.0    0.0002    0.0130
  128              128              129              CONDUIT          500.0    0.0002    0.0130
  129              129              130              CONDUIT          500.0    0.0002    0.0130
  130              130              131              CONDUIT          500.0    0.0002    0.0130
  131              131              132              CONDUIT          500.0    0.0002    0.0130
  132              132              133              CONDUIT          500.0    0.0002    0.0130
  133              133              134              CONDUIT          500.0    0.0002    0.0130
  134              134              135              CONDUIT          500.0    0.0002    0.0130
  135              135              136              CONDUIT          500.0    0.0002    0.0130
  136              136              137              CONDUIT          500.0    0.0002    0.0130
  137              137              138              CONDUIT          500.0    0.0002    0.0130
  138              138              139              CONDUIT          500.0    0.0002    0.0130
  139              139              140              CONDUIT          500.0    0.0002    0.0130
  140              140              141              CONDUIT          500.0    0.0002    0.0130
  141              141              142              CONDUIT          500.0    0.0002    0.0130
  142              142              143              CONDUIT          500.0    0.0002    0.0130
  143              143              144              CONDUIT          500.0    0.0002    0.0130
  144              144              145              CONDUIT          500.0    0.0002    0.0130
  145              145              146              CONDUIT          500.0    0.0002    0.0130
  146              146              147              CONDUIT          500.0    0.0002    0.0130
  147              147              148              CONDUIT          500.0    0.0002    0.0130
  148              148              149              CONDUIT          500.0    0.0002    0.0130
  152              152              153              CONDUIT          500.0    0.0002    0.0130
  153              153              154              CONDUIT          500.0    0.0002    0.0130
  154              154              155              CONDUIT          500.0    0.0002    0.0130
  155              155              156              CONDUIT          500.0    0.0002    0.0130
  156              156              157              CONDUIT          500.0    0.0002    0.0130
  157              157              158              CONDUIT          500.0    0.0002    0.0130
  158              158              159              CONDUIT          500.0    0.0002    0.0130
  159              159              160              CONDUIT          500.0    0.0002    0.0130
  160              160              161              CONDUIT          500.0    0.0002    0.0130
  161              161              162              CONDUIT          500.0    0.0002    0.0130
  162              162              163              CONDUIT          500.0    0.0002    0.0130
  163              163              164              CONDUIT          500.0    0.0002    0.0130
  164              164              165              CONDUIT          500.0    0.0002    0.0130
  165              165              166              CONDUIT          500.0    0.0002    0.0130
  166              166              167              CONDUIT          500.0    0.0002    0.0130
  167              167              168              CONDUIT          500.0    0.0002    0.0130
  168              168              169              CONDUIT          500.0    0.0002    0.0130
  169              169              170              CONDUIT          500.0    0.0002    0.0130
  170              170              171              CONDUIT          500.0    0.0002    0.0130
  171              171              172              CONDUIT          500.0    0.0002    0.0130
  172              172              173              CONDUIT          500.0    0.0002    0.0130
  173              173              174              CONDUIT          500.0    0.0002    0.0130
  174              174              175              CONDUIT          500.0    0.0002    0.0130
  175              175              176              CONDUIT          500.0    0.0002    0.0130
  176              176              177              CONDUIT          500.0    0.0002    0.0130
  177              177              178              CONDUIT          500.0    0.0002    0.0130
  178              178              179              CONDUIT          500.0    0.0002    0.0130
  179              179              180              CONDUIT          500.0    0.0002    0.0130
  180              180              181              CONDUIT          500.0    0.0002    0.0130
  181              181              182              CONDUIT          500.0    0.0002    0.0130
  182              182              183              CONDUIT          500.0    0.0002    0.0130
  183              183              184              CONDUIT          500.0    0.0002    0.0130
  184              184              185              CONDUIT          500.0    0.0002    0.0130
  185              185              186              CONDUIT          500.0    0.0002    0.0130
  186              186              187              CONDUIT          500.0    0.0002    0.0130
  187              187              188              CONDUIT          500.0    0.0002    0.0130
  188              188              189              CONDUIT          500.0    0.0002    0.0130
  189              189              190              CONDUIT          500.0    0.0002    0.0130
  190              190              191              CONDUIT          500.0    0.0002    0.0130
  191              191              192              CONDUIT          500.0    0.0002    0.0130
  192              192              193              CONDUIT          500.0    0.0002    0.0130
  193              193              194              CONDUIT          500.0    0.0002    0.0130
  194              194              195              CONDUIT          500.0    0.0002    0.0130
  195              195              196              CONDUIT          500.0    0.0002    0.0130
  196              196              197              CONDUIT          500.0    0.0002    0.0130
  197              197              198              CONDUIT          500.0    0.0002    0.0130
  198              198              199              CONDUIT          500.0    0.0002    0.0130
  199              199              200              CONDUIT          500.0    0.0002    0.0130
  200              200              201              CONDUIT          500.0    0.0002    0.0130
  201              201              202              CONDUIT          500.0    0.0002    0.0130
  202              202              203              CONDUIT          500.0    0.0002    0.0130
  203              203              204              CONDUIT          500.0    0.0002    0.0130
  204              204              205              CONDUIT          500.0    0.0002    0.0130
  205              205              206              CONDUIT          500.0    0.0002    0.0130
  206              206              207              CONDUIT          500.0    0.0002    0.0130
  207              207              208              CONDUIT          500.0    0.0002    0.0130
  208              208              209              CONDUIT          500.0    0.0002    0.0130
  209              209              210              CONDUIT          500.0    0.0002    0.0130
  210              210              211              CONDUIT          500.0    0.0002    0.0130
  211              211              212              CONDUIT          500.0    0.0002    0.0130
  212              212              213              CONDUIT          500.0    0.0002    0.0130
  213              213              214              CONDUIT          500.0    0.0002    0.0130
  214              214              215              CONDUIT          500.0    0.0002    0.0130
  215              215              216              CONDUIT          500.0    0.0002    0.0130
  216              216              217              CONDUIT          500.0    0.0002    0.0130
  217              217              218              CONDUIT          500.0    0.0002    0.0130
  218              218              219              CONDUIT          500.0    0.0002    0.0130
  219              219              220              CONDUIT          500.0    0.0002    0.0130
  220              220              221              CONDUIT          500.0    0.0002    0.0130
  221              221              222              CONDUIT          500.0    0.0002    0.0130
  222              222              223              CONDUIT          500.0    0.0002    0.0130
  223              223              224              CONDUIT          500.0    0.0002    0.0130
  224              224              225              CONDUIT          500.0    0.0002    0.0130
  225              225              226              CONDUIT          500.0    0.0002    0.0130
  226              226              227              CONDUIT          500.0    0.0002    0.0130
  227              227              228              CONDUIT          500.0    0.0002    0.0130
  228              228              229              CONDUIT          500.0    0.0002    0.0130
  230              230              231              CONDUIT          500.0    0.0002    0.0130
  231              231              232              CONDUIT          500.0    0.0002    0.0130
  232              232              233              CONDUIT          500.0    0.0002    0.0130
  233              233              234              CONDUIT          500.0    0.0002    0.0130
  234              234              235              CONDUIT          500.0    0.0002    0.0130
  235              235              236              CONDUIT          500.0    0.0002    0.0130
  236              236              237              CONDUIT          500.0    0.0002    0.0130
  237              237              238              CONDUIT          500.0    0.0002    0.0130
  238              238              239              CONDUIT          500.0    0.0002    0.0130
  239              239              240              CONDUIT          500.0    0.0002    0.0130
  240              240              241              CONDUIT          500.0    0.0002    0.0130
  241              241              242              CONDUIT          500.0    0.0002    0.0130
  242              242              243              CONDUIT          500.0    0.0002    0.0130
  243              243              244              CONDUIT          500.0    0.0002    0.0130
  244              244              245              CONDUIT          500.0    0.0002    0.0130
  245              245              246              CONDUIT          500.0    0.0002    0.0130
  246              246              247              CONDUIT          500.0    0.0002    0.0130
  247              247              248              CONDUIT          500.0    0.0002    0.0130
  248              248              249              CONDUIT          500.0    0.0002    0.0130
  249              249              250              CONDUIT          500.0    0.0002    0.0130
  250              250              251              CONDUIT          500.0    0.0002    0.0130
  251              251              252              CONDUIT          500.0    0.0002    0.0130
  252              252              253              CONDUIT          500.0    0.0002    0.0130
  253              253              254              CONDUIT          500.0    0.0002    0.0130
  254              254              255              CONDUIT          500.0    0.0002    0.0130
  255              255              256              CONDUIT          500.0    0.0002    0.0130
  256              256              257              CONDUIT          500.0    0.0002    0.0130
  257              257              258              CONDUIT          500.0    0.0002    0.0130
  258              258              259              CONDUIT          500.0    0.0002    0.0130
  259              259              260              CONDUIT          500.0    0.0002    0.0130
  260              260              261              CONDUIT          500.0    0.0002    0.0130
  261              261              262              CONDUIT          500.0    0.0002    0.0130
  262              262              263              CONDUIT          500.0    0.0002    0.0130
  263              263              264              CONDUIT          500.0    0.0002    0.0130
  264              264              265              CONDUIT          500.0    0.0002    0.0130
  265              265              266              CONDUIT          500.0    0.0002    0.0130
  266              266              267              CONDUIT          500.0    0.0002    0.0130
  267              267              268              CONDUIT          500.0    0.0002    0.0130
  268              268              269              CONDUIT          500.0    0.0002    0.0130
  269              269              270              CONDUIT          500.0    0.0002    0.0130
  270              270              271              CONDUIT          500.0    0.0002    0.0130
  271              271              272              CONDUIT          500.0    0.0002    0.0130
  272              272              273              CONDUIT          500.0    0.0002    0.0130
  273              273              274              CONDUIT          500.0    0.0002    0.0130
  274              274              275              CONDUIT          500.0    0.0002    0.0130
  275              275              276              CONDUIT          500.0    0.0002    0.0130
  276              276              277              CONDUIT          500.0    0.0002    0.0130
  277              277              278              CONDUIT          500.0    0.0002    0.0130
  278              278              279              CONDUIT          500.0    0.0002    0.0130
  279              279              280              CONDUIT          500.0    0.0002    0.0130
  280              280              281              CONDUIT          500.0    0.0002    0.0130
  281              281              282              CONDUIT          500.0    0.0002    0.0130
  282              282              283              CONDUIT          500.0    0.0002    0.0130
  283              283              284              CONDUIT          500.0    0.0002    0.0130
  284              284              285              CONDUIT          500.0    0.0002    0.0130
  285              285              286              CONDUIT          500.0    0.0002    0.0130
  286              286              287              CONDUIT          500.0    0.0002    0.0130
  287              287              288              CONDUIT          500.0    0.0002    0.0130
  288              288              289              CONDUIT          500.0    0.0002    0.0130
  289              289              290              CONDUIT          500.0    0.0002    0.0130
  290              290              291              CONDUIT          500.0    0.0002    0.0130
  291              291              292              CONDUIT          500.0    0.0002    0.0130
  292              292              293              CONDUIT          500.0    0.0002    0.0130
  293              293              294              CONDUIT          500.0    0.0002    0.0130
  294              294              295              CONDUIT          500.0    0.0002    0.0130
  295              295              296              CONDUIT          500.0    0.0002    0.0130
  296              296              297              CONDUIT          500.0    0.0002    0.0130
  297              297              298              CONDUIT          500.0    0.0002    0.0130
  298              298              299              CONDUIT          500.0    0.0002    0.0130
  1                1                2                TYPE1 PUMP  
  151              151              152              TYPE1 PUMP  
  229              229              230              TYPE4 PUMP  
  79               79               80               TYPE4 PUMP  
  149              149              150              ORIFICE     
  299              299              300              ORIFICE     
  
  
  *********************
  Cross Section Summary
  *********************
                                        Full     Full     Hyd.     Max.   No. of     Full
  Conduit          Shape               Depth     Area     Rad.    Width  Barrels     Flow
  ---------------------------------------------------------------------------------------
  2                FORCE_MAIN           3.00     7.07     0.75     3.00        1     0.66
  3                FORCE_MAIN           3.00     7.07     0.75     3.00        1     0.66
  4                FORCE_MAIN           3.00     7.07     0.75     3.00        1     0.66
  5                FORCE_MAIN           3.00     7.07     0.75     3.00        1     0.66
  6                FORCE_MAIN           3.00     7.07     0.75     3.00        1     0.66
  7                FORCE_MAIN           3.00     7.07     0.75     3.00        1     0.66
  8                FORCE_MAIN           3.00     7.07     0.75     3.00        1     0.66
  9                FORCE_MAIN           3.00     7.07     0.75     3.00        1     0.66
  10               FORCE_MAIN           3.00     7.07     0.75     3.00        1     0.66
  11               FORCE_MAIN           3.00     7.07     0.75     3.00        1     0.66
  12               FORCE_MAIN           3.00     7.07     0.75     3.00        1     0.66
  13               FORCE_MAIN           3.00     7.07     0.75     3.00        1     0.66
  14               FORCE_MAIN           3.00     7.07     0.75     3.00        1     0.66
  15               FORCE_MAIN           3.00     7.07     0.75     3.00        1     0.66
  16               FORCE_MAIN           3.00     7.07     0.75     3.00        1     0.66
  17               FORCE_MAIN           3.00     7.07     0.75     3.00        1     0.66
  18               FORCE_MAIN           3.00     7.07     0.75     3.00        1     0.66
  19               FORCE_MAIN           3.00     7.07     0.75     3.00        1     0.66
  20               FORCE_MAIN           3.00     7.07     0.75     3.00        1     0.66
  21               FORCE_MAIN           3.00     7.07     0.75     3.00        1     0.66
  22               FORCE_MAIN           3.00     7.07     0.75     3.00        1     0.66
  23               FORCE_MAIN           3.00     7.07     0.75     3.00        1     0.66
  24               FORCE_MAIN           3.00     7.07     0.75     3.00        1     0.66
  25               FORCE_MAIN           3.00     7.07     0.75     3.00        1     0.66
  26               FORCE_MAIN           3.00     7.07     0.75     3.00        1     0.66
  27               FORCE_MAIN           3.00     7.07     0.75     3.00        1     0.66
  28               FORCE_MAIN           3.00     7.07     0.75     3.00        1     0.66
  29               FORCE_MAIN           3.00     7.07     0.75     3.00        1     0.66
  30               FORCE_MAIN           3.00     7.07     0.75     3.00        1     0.66
  31               FORCE_MAIN           3.00     7.07     0.75     3.00        1     0.66
  32               FORCE_MAIN           3.00     7.07     0.75     3.00        1     0.66
  33               FORCE_MAIN           3.00     7.07     0.75     3.00        1     0.66
  34               FORCE_MAIN           3.00     7.07     0.75     3.00        1     0.66
  35               FORCE_MAIN           3.00     7.07     0.75     3.00        1     0.66
  36               FORCE_MAIN           3.00     7.07     0.75     3.00        1     0.66
  37               FORCE_MAIN           3.00     7.07     0.75     3.00        1     0.66
  38               FORCE_MAIN           3.00     7.07     0.75     3.00        1     0.66
  39               FORCE_MAIN           3.00     7.07     0.75     3.00        1     0.66
  40               FORCE_MAIN           3.00     7.07     0.75     3.00        1     0.66
  41               FORCE_MAIN           3.00     7.07     0.75     3.00        1     0.66
  42               FORCE_MAIN           3.00     7.07     0.75     3.00        1     0.66
  43               FORCE_MAIN           3.00     7.07     0.75     3.00        1     0.66
  44               FORCE_MAIN           3.00     7.07     0.75     3.00        1     0.66
  45               FORCE_MAIN           3.00     7.07     0.75     3.00        1     0.66
  46               FORCE_MAIN           3.00     7.07     0.75     3.00        1     0.66
  47               FORCE_MAIN           3.00     7.07     0.75     3.00        1     0.66
  48               FORCE_MAIN           3.00     7.07     0.75     3.00        1     0.66
  49               FORCE_MAIN           3.00     7.07     0.75     3.00        1     0.66
  50               FORCE_MAIN           3.00     7.07     0.75     3.00        1     0.66
  51               FORCE_MAIN           3.00     7.07     0.75     3.00        1     0.66
  52               FORCE_MAIN           3.00     7.07     0.75     3.00        1     0.66
  53               FORCE_MAIN           3.00     7.07     0.75     3.00        1     0.66
  54               FORCE_MAIN           3.00     7.07     0.75     3.00        1     0.66
  55               FORCE_MAIN           3.00     7.07     0.75     3.00        1     0.66
  56               FORCE_MAIN           3.00     7.07     0.75     3.00        1     0.66
  57               FORCE_MAIN           3.00     7.07     0.75     3.00        1     0.66
  58               FORCE_MAIN           3.00     7.07     0.75     3.00        1     0.66
  59               FORCE_MAIN           3.00     7.07     0.75     3.00        1     0.66
  60               FORCE_MAIN           3.00     7.07     0.75     3.00        1     0.66
  61               FORCE_MAIN           3.00     7.07     0.75     3.00        1     0.66
  62               FORCE_MAIN           3.00     7.07     0.75     3.00        1     0.66
  63               FORCE_MAIN           3.00     7.07     0.75     3.00        1     0.66
  64               FORCE_MAIN           3.00     7.07     0.75     3.00        1     0.66
  65               FORCE_MAIN           3.00     7.07     0.75     3.00        1     0.66
  66               FORCE_MAIN           3.00     7.07     0.75     3.00        1     0.66
  67               FORCE_MAIN           3.00     7.07     0.75     3.00        1     0.66
  68               FORCE_MAIN           3.00     7.07     0.75     3.00        1     0.66
  69               FORCE_MAIN           3.00     7.07     0.75     3.00        1     0.66
  70               FORCE_MAIN           3.00     7.07     0.75     3.00        1     0.66
  71               FORCE_MAIN           3.00     7.07     0.75     3.00        1     0.66
  72               FORCE_MAIN           3.00     7.07     0.75     3.00        1     0.66
  73               FORCE_MAIN           3.00     7.07     0.75     3.00        1     0.66
  74               FORCE_MAIN           3.00     7.07     0.75     3.00        1     0.66
  75               FORCE_MAIN           3.00     7.07     0.75     3.00        1     0.66
  76               FORCE_MAIN           3.00     7.07     0.75     3.00        1     0.66
  77               FORCE_MAIN           3.00     7.07     0.75     3.00        1     0.66
  78               FORCE_MAIN           3.00     7.07     0.75     3.00        1     0.66
  80               FORCE_MAIN           3.00     7.07     0.75     3.00        1     0.66
  81               FORCE_MAIN           3.00     7.07     0.75     3.00        1     0.66
  82               FORCE_MAIN           3.00     7.07     0.75     3.00        1     0.66
  83               FORCE_MAIN           3.00     7.07     0.75     3.00        1     0.66
  84               FORCE_MAIN           3.00     7.07     0.75     3.00        1     0.66
  85               FORCE_MAIN           3.00     7.07     0.75     3.00        1     0.66
  86               FORCE_MAIN           3.00     7.07     0.75     3.00        1     0.66
  87               FORCE_MAIN           3.00     7.07     0.75     3.00        1     0.66
  88               FORCE_MAIN           3.00     7.07     0.75     3.00        1     0.66
  89               FORCE_MAIN           3.00     7.07     0.75     3.00        1     0.66
  90               FORCE_MAIN           3.00     7.07     0.75     3.00        1     0.66
  91               FORCE_MAIN           3.00     7.07     0.75     3.00        1     0.66
  92               FORCE_MAIN           3.00     7.07     0.75     3.00        1     0.66
  93               FORCE_MAIN           3.00     7.07     0.75     3.00        1     0.66
  94               FORCE_MAIN           3.00     7.07     0.75     3.00        1     0.66
  95               FORCE_MAIN           3.00     7.07     0.75     3.00        1     0.66
  96               FORCE_MAIN           3.00     7.07     0.75     3.00        1     0.66
  97               FORCE_MAIN           3.00     7.07     0.75     3.00        1     0.66
  98               FORCE_MAIN           3.00     7.07     0.75     3.00        1     0.66
  99               FORCE_MAIN           3.00     7.07     0.75     3.00        1     0.66
  100              FORCE_MAIN           3.00     7.07     0.75     3.00        1     0.66
  101              FORCE_MAIN           3.00     7.07     0.75     3.00        1     0.66
  102              FORCE_MAIN           3.00     7.07     0.75     3.00        1     0.66
  103              FORCE_MAIN           3.00     7.07     0.75     3.00        1     0.66
  104              FORCE_MAIN           3.00     7.07     0.75     3.00        1     0.66
  105              FORCE_MAIN           3.00     7.07     0.75     3.00        1     0.66
  106              FORCE_MAIN           3.00     7.07     0.75     3.00        1     0.66
  107              FORCE_MAIN           3.00     7.07     0.75     3.00        1     0.66
  108              FORCE_MAIN           3.00     7.07     0.75     3.00        1     0.66
  109              FORCE_MAIN           3.00     7.07     0.75     3.00        1     0.66
  110              FORCE_MAIN           3.00     7.07     0.75     3.00        1     0.66
  111              FORCE_MAIN           3.00     7.07     0.75     3.00        1     0.66
  112              FORCE_MAIN           3.00     7.07     0.75     3.00        1     0.66
  113              FORCE_MAIN           3.00     7.07     0.75     3.00        1     0.66
  114              FORCE_MAIN           3.00     7.07     0.75     3.00        1     0.66
  115              FORCE_MAIN           3.00     7.07     0.75     3.00        1     0.66
  116              FORCE_MAIN           3.00     7.07     0.75     3.00        1     0.66
  117              FORCE_MAIN           3.00     7.07     0.75     3.00        1     0.66
  118              FORCE_MAIN           3.00     7.07     0.75     3.00        1     0.66
  119              FORCE_MAIN           3.00     7.07     0.75     3.00        1     0.66
  120              FORCE_MAIN           3.00     7.07     0.75     3.00        1     0.66
  121              FORCE_MAIN           3.00     7.07     0.75     3.00        1     0.66
  122              FORCE_MAIN           3.00     7.07     0.75     3.00        1     0.66
  123              FORCE_MAIN           3.00     7.07     0.75     3.00        1     0.66
  124              FORCE_MAIN           3.00     7.07     0.75     3.00        1     0.66
  125              FORCE_MAIN           3.00     7.07     0.75     3.00        1     0.66
  126              FORCE_MAIN           3.00     7.07     0.75     3.00        1     0.66
  127              FORCE_MAIN           3.00     7.07     0.75     3.00        1     0.66
  128              FORCE_MAIN           3.00     7.07     0.75     3.00        1     0.66
  129              FORCE_MAIN           3.00     7.07     0.75     3.00        1     0.66
  130              FORCE_MAIN           3.00     7.07     0.75     3.00        1     0.66
  131              FORCE_MAIN           3.00     7.07     0.75     3.00        1     0.66
  132              FORCE_MAIN           3.00     7.07     0.75     3.00        1     0.66
  133              FORCE_MAIN           3.00     7.07     0.75     3.00        1     0.66
  134              FORCE_MAIN           3.00     7.07     0.75     3.00        1     0.66
  135              FORCE_MAIN           3.00     7.07     0.75     3.00        1     0.66
  136              FORCE_MAIN           3.00     7.07     0.75     3.00        1     0.66
  137              FORCE_MAIN           3.00     7.07     0.75     3.00        1     0.66
  138              FORCE_MAIN           3.00     7.07     0.75     3.00        1     0.66
  139              FORCE_MAIN           3.00     7.07     0.75     3.00        1     0.66
  140              FORCE_MAIN           3.00     7.07     0.75     3.00        1     0.66
[...]
  53                         76.10     76.42     76.10     88.19        76.03
  54                         75.82     76.10     75.82     87.97        75.78
  55                         75.57     75.82     75.57     87.81        75.55
  56                         75.46     75.57     75.46     87.71        75.44
  57                         74.59     75.46     74.59     87.62        74.58
  58                         73.85     74.59     73.85     87.54        73.83
  59                         73.25     73.85     73.25     87.47        73.24
  60                         72.72     73.25     72.72     87.41        72.71
  61                         72.24     72.72     72.24     87.35        72.22
  62                         71.99     72.24     71.99     87.29        71.98
  63                         71.84     71.99     71.84     87.23        71.83
  64                         71.67     71.84     71.67     87.18        71.67
  65                         70.40     71.67     70.40     87.12        70.40
  66                         69.22     70.40     69.22     87.06        69.22
  67                         68.49     69.22     68.49     87.01        68.49
  68                         68.08     68.49     68.08     86.95        68.08
  69                         67.87     68.08     67.87     86.90        67.87
  70                         65.68     67.87     65.68     86.84        65.68
  71                         64.87     65.68     64.87     86.78        64.87
  72                         64.43     64.87     64.43     86.72        64.43
  73                         64.14     64.43     64.14     86.66        64.14
  74                         61.38     64.14     61.38     86.59        61.38
  75                         60.56     61.38     60.56     86.53        60.56
  76                         55.83     60.56     55.83     86.47        55.83
  77                         43.77     55.83     43.77     86.41        43.77
  78                         43.46     43.78     43.46     86.34        43.46
  80                         86.01     86.07     86.01     86.30        85.47
  81                         85.95     86.01     85.95     86.23        83.42
  82                         85.89     85.95     85.89     86.17        83.42
  83                         85.81     85.89     85.81     86.10        83.41
  84                         85.74     85.81     85.74     86.04        83.45
  85                         85.67     85.74     85.67     85.98        83.45
  86                         85.60     85.67     85.60     85.91        83.55
  87                         85.53     85.60     85.53     85.85        83.55
  88                         85.47     85.53     85.47     85.79        83.44
  89                         85.40     85.47     85.40     85.73        83.23
  90                         85.33     85.40     85.33     85.66        83.07
  91                         85.27     85.33     85.27     85.60        82.75
  92                         85.20     85.27     85.20     85.53        82.53
  93                         85.13     85.20     85.13     85.47        82.38
  94                         85.07     85.13     85.07     85.40        82.24
  95                         85.00     85.07     85.00     85.33        82.18
  96                         84.94     85.00     84.94     85.27        82.06
  97                         84.91     84.94     84.91     85.20        81.98
  98                         84.86     84.91     84.86     85.13        81.79
  99                         84.82     84.86     84.82     85.07        81.70
  100                        84.76     84.82     84.76     85.00        81.36
  101                        84.71     84.76     84.71     84.94        81.18
  102                        84.66     84.71     84.66     84.87        80.84
  103                        84.60     84.66     84.60     84.81        80.76
  104                        84.55     84.60     84.55     84.75        80.43
  105                        84.49     84.55     84.49     84.70        80.40
  106                        84.44     84.49     84.44     84.64        80.21
  107                        84.38     84.44     84.38     84.58        79.96
  108                        84.32     84.38     84.32     84.53        80.04
  109                        84.27     84.32     84.27     84.47        79.66
  110                        84.21     84.27     84.21     84.42        79.78
  111                        84.16     84.21     84.16     84.36        79.39
  112                        84.10     84.16     84.10     84.31        79.40
  113                        84.05     84.10     84.05     84.25        79.19
  114                        83.99     84.05     83.99     84.20        78.94
  115                        83.94     83.99     83.94     84.14        79.06
  116                        83.88     83.94     83.88     84.08        78.61
  117                        83.82     83.88     83.82     84.03        78.92
  118                        83.77     83.82     83.77     83.97        78.43
  119                        83.71     83.77     83.71     83.92        78.71
  120                        83.66     83.71     83.66     83.86        78.28
  121                        83.60     83.66     83.60     83.81        78.47
  122                        83.55     83.60     83.55     83.75        78.21
  123                        83.49     83.55     83.49     83.70        78.11
  124                        83.43     83.49     83.43     83.64        78.21
  125                        83.38     83.43     83.38     83.58        77.75
  126                        83.32     83.38     83.32     83.53        78.14
  127                        83.27     83.32     83.27     83.47        77.59
  128                        83.21     83.27     83.21     83.42        78.06
  129                        83.16     83.21     83.16     83.37        77.42
  130                        83.10     83.16     83.10     83.32        77.88
  131                        83.05     83.10     83.05     83.27        77.32
  132                        83.00     83.05     83.00     83.22        77.64
  133                        82.94     83.00     82.94     83.17        77.32
  134                        82.89     82.94     82.89     83.12        77.44
  135                        82.84     82.89     82.84     83.07        77.46
  136                        82.79     82.84     82.79     83.02        77.05
  137                        82.74     82.79     82.74     82.97        77.50
  138                        82.69     82.74     82.69     82.92        77.05
  139                        82.63     82.69     82.63     82.87        77.41
  140                        82.58     82.63     82.58     82.82        77.20
  141                        82.53     82.58     82.53     82.77        77.11
  142                        82.48     82.53     82.48     82.72        77.15
  143                        82.43     82.48     82.43     82.67        77.18
  144                        82.38     82.43     82.38     82.62        77.16
  145                        82.33     82.38     82.33     82.56        77.12
  146                        82.30     82.33     82.30     82.47        77.09
  147                        82.29     82.30     82.29     81.88        77.13
  148                        82.29     82.29     82.29     80.42        77.24
  152                        87.41     87.64     87.41     95.99        85.78
  153                        87.18     87.41     87.18     95.93        85.63
  154                        86.96     87.18     86.96     95.85        85.05
  155                        86.74     86.96     86.74     95.78        84.81
  156                        86.52     86.74     86.52     95.70        84.55
  157                        86.30     86.52     86.30     95.61        84.27
  158                        86.08     86.30     86.08     95.52        83.98
  159                        85.88     86.08     85.88     95.43        83.71
  160                        85.69     85.88     85.69     95.33        83.73
  161                        85.55     85.69     85.55     95.23        83.74
  162                        85.42     85.55     85.42     95.13        83.71
  163                        85.30     85.42     85.30     95.02        83.74
  164                        85.16     85.30     85.16     94.92        83.78
  165                        85.00     85.16     85.00     94.81        83.76
  166                        84.88     85.00     84.88     94.70        83.74
  167                        84.73     84.88     84.73     94.58        83.64
  168                        84.60     84.73     84.61     94.46        83.58
  169                        84.50     84.61     84.50     94.34        83.48
  170                        84.33     84.50     84.33     94.21        83.32
  171                        84.16     84.33     84.17     94.08        83.19
  172                        83.98     84.17     83.99     93.95        83.04
  173                        83.80     83.99     83.81     93.81        82.87
  174                        83.63     83.81     83.64     93.66        82.71
  175                        83.44     83.64     83.45     93.52        82.61
  176                        83.31     83.44     83.32     93.37        82.50
  177                        83.19     83.32     83.19     93.22        82.34
  178                        83.04     83.19     83.05     93.07        82.26
  179                        82.93     83.05     82.94     92.93        82.16
  180                        82.81     82.94     82.81     92.75        82.08
  181                        82.65     82.81     82.66     92.59        81.94
  182                        82.50     82.66     82.51     92.45        81.80
  183                        82.29     82.51     82.30     92.27        81.65
  184                        82.03     82.30     82.04     92.11        81.42
  185                        81.74     82.04     81.75     91.94        81.24
  186                        81.59     81.75     81.60     91.80        81.21
  187                        81.49     81.60     81.50     91.65        81.16
  188                        81.38     81.50     81.38     91.53        81.03
  189                        81.25     81.38     81.26     91.35        80.88
  190                        81.12     81.26     81.12     91.18        80.69
  191                        80.73     81.12     80.73     90.99        80.40
  192                        80.22     80.73     80.22     90.80        79.97
  193                        79.78     80.22     79.78     90.60        79.56
  194                        79.36     79.78     79.36     90.39        79.21
  195                        78.95     79.36     78.95     90.18        78.81
  196                        78.56     78.95     78.56     89.96        78.45
  197                        78.19     78.56     78.19     89.72        78.07
  198                        77.83     78.19     77.83     89.47        77.72
  199                        77.51     77.83     77.51     89.21        77.40
  200                        77.21     77.51     77.21     88.95        77.08
  201                        76.75     77.21     76.75     88.70        76.64
  202                        76.42     76.75     76.42     88.44        76.32
  203                        76.10     76.42     76.10     88.19        76.03
  204                        75.82     76.10     75.82     87.97        75.78
  205                        75.57     75.82     75.57     87.81        75.55
  206                        75.46     75.57     75.46     87.71        75.44
  207                        74.59     75.46     74.59     87.62        74.58
  208                        73.85     74.59     73.85     87.54        73.83
  209                        73.25     73.85     73.25     87.47        73.24
  210                        72.72     73.25     72.72     87.41        72.71
  211                        72.24     72.72     72.24     87.35        72.22
  212                        71.99     72.24     71.99     87.29        71.98
  213                        71.84     71.99     71.84     87.23        71.83
  214                        71.67     71.84     71.67     87.18        71.67
  215                        70.40     71.67     70.40     87.12        70.40
  216                        69.22     70.40     69.22     87.06        69.22
  217                        68.49     69.22     68.49     87.01        68.49
  218                        68.08     68.49     68.08     86.95        68.08
  219                        67.87     68.08     67.87     86.90        67.87
  220                        65.68     67.87     65.68     86.84        65.68
  221                        64.87     65.68     64.87     86.78        64.87
  222                        64.43     64.87     64.43     86.72        64.43
  223                        64.14     64.43     64.14     86.66        64.14
  224                        61.38     64.14     61.38     86.59        61.38
  225                        60.56     61.38     60.56     86.53        60.56
  226                        55.83     60.56     55.83     86.47        55.83
  227                        43.77     55.83     43.77     86.41        43.77
  228                        43.46     43.78     43.46     86.34        43.46
  230                        86.01     86.07     86.01     86.30        85.47
  231                        85.95     86.01     85.95     86.23        84.62
  232                        85.89     85.95     85.89     86.17        84.39
  233                        85.81     85.89     85.81     86.10        84.38
  234                        85.74     85.81     85.74     86.04        84.35
  235                        85.67     85.74     85.67     85.98        84.42
  236                        85.60     85.67     85.60     85.91        84.54
  237                        85.53     85.60     85.53     85.85        84.59
  238                        85.47     85.53     85.47     85.79        84.60
  239                        85.40     85.47     85.40     85.73        84.44
  240                        85.33     85.40     85.33     85.66        84.20
  241                        85.27     85.33     85.27     85.60        83.83
  242                        85.20     85.27     85.20     85.53        83.24
  243                        85.13     85.20     85.13     85.47        82.57
  244                        85.07     85.13     85.07     85.40        81.78
  245                        85.00     85.07     85.00     85.33        81.35
  246                        84.94     85.00     84.94     85.27        80.86
  247                        84.91     84.94     84.91     85.20        80.53
  248                        84.86     84.91     84.86     85.13        80.33
  249                        84.82     84.86     84.82     85.07        80.08
  250                        84.76     84.82     84.76     85.00        79.72
  251                        84.71     84.76     84.71     84.94        79.61
  252                        84.66     84.71     84.66     84.87        79.03
  253                        84.60     84.66     84.60     84.81        79.08
  254                        84.55     84.60     84.55     84.75        78.32
  255                        84.49     84.55     84.49     84.70        78.50
  256                        84.44     84.49     84.44     84.64        77.99
  257                        84.38     84.44     84.38     84.58        77.34
  258                        84.32     84.38     84.32     84.53        77.65
  259                        84.27     84.32     84.27     84.47        76.86
  260                        84.21     84.27     84.21     84.42        77.20
  261                        84.16     84.21     84.16     84.36        76.59
  262                        84.10     84.16     84.10     84.31        76.53
  263                        84.05     84.10     84.05     84.25        76.35
  264                        83.99     84.05     83.99     84.20        75.81
  265                        83.94     83.99     83.94     84.14        76.25
  266                        83.88     83.94     83.88     84.08        75.42
  267                        83.82     83.88     83.82     84.03        76.11
  268                        83.77     83.82     83.77     83.97        75.25
  269                        83.71     83.77     83.71     83.92        75.77
  270                        83.66     83.71     83.66     83.86        75.10
  271                        83.60     83.66     83.60     83.81        75.47
  272                        83.55     83.60     83.55     83.75        74.98
  273                        83.49     83.55     83.49     83.70        74.83
  274                        83.43     83.49     83.43     83.64        74.83
  275                        83.38     83.43     83.38     83.58        74.50
  276                        83.32     83.38     83.32     83.53        74.64
  277                        83.27     83.32     83.27     83.47        74.34
  278                        83.21     83.27     83.21     83.42        74.38
  279                        83.15     83.21     83.15     83.36        74.22
  280                        83.10     83.15     83.10     83.31        74.16
  281                        83.04     83.10     83.04     83.25        74.14
  282                        82.99     83.04     82.99     83.19        74.30
  283                        82.93     82.99     82.93     83.14        74.06
  284                        82.88     82.93     82.88     83.08        74.19
  285                        82.82     82.88     82.82     83.03        74.05
  286                        82.77     82.82     82.77     82.97        73.94
  287                        82.71     82.77     82.71     82.92        74.39
  288                        82.65     82.71     82.65     82.86        73.90
  289                        82.60     82.65     82.60     82.80        75.00
  290                        82.54     82.60     82.54     82.75        74.45
  291                        82.49     82.54     82.49     82.69        74.93
  292                        82.43     82.49     82.43     82.64        75.15
  293                        82.37     82.43     82.37     82.58        74.58
  294                        82.32     82.37     82.32     82.52        75.16
  295                        82.26     82.32     82.26     82.47        74.88
  296                        82.21     82.26     82.21     82.41        73.87
  297                        82.03     82.21     82.03     82.36        73.33
  298                        68.41     82.05     68.43     82.07        61.68
  
  
  ***************
  Pumping Summary
  ***************
  
  ---------------------------------------------------------------------------------------------------------
                                                  Min       Avg       Max     Total     Power    % Time Off
                        Percent   Number of      Flow      Flow      Flow    Volume     Usage    Pump Curve
  Pump                 Utilized   Start-Ups       CFS       CFS       CFS  10^6 gal     Kw-hr    Low   High
  ---------------------------------------------------------------------------------------------------------
  1                      100.00           1      0.00     14.08     25.00    36.354   8180.20    0.0    0.0
  151                    100.00           1      0.00     14.08     25.00    36.354   8180.20    0.0    0.0
  229                     90.01           1      0.00     14.06     18.00    32.679   2068.49    0.0   53.2
  79                      90.01           1      0.00     14.06     18.00    32.679   2068.49    0.0   53.2
  

  Analysis begun on:  Tue Jun 23 20:36:43 2026
  Analysis ended on:  Tue Jun 23 20:36:58 2026
  Total elapsed time: 00:00:15