
  EPA STORM WATER MANAGEMENT MODEL - VERSION 5.2 (Build 5.2.4)
  ------------------------------------------------------------

  WARNING 04: minimum elevation drop used for Conduit 1
  WARNING 04: minimum elevation drop used for Conduit 2
  WARNING 04: minimum elevation drop used for Conduit 5
  WARNING 04: minimum elevation drop used for Conduit 7
  WARNING 04: minimum elevation drop used for Conduit 8
  WARNING 04: minimum elevation drop used for Conduit 9
  WARNING 04: minimum elevation drop used for Conduit 10
  WARNING 04: minimum elevation drop used for Conduit 11
  WARNING 04: minimum elevation drop used for Conduit 12
  WARNING 04: minimum elevation drop used for Conduit 13
  WARNING 04: minimum elevation drop used for Conduit 14
  WARNING 04: minimum elevation drop used for Conduit 15
  WARNING 04: minimum elevation drop used for Conduit 16
  WARNING 04: minimum elevation drop used for Conduit 17
  WARNING 04: minimum elevation drop used for Conduit 18
  WARNING 04: minimum elevation drop used for Conduit 19
  WARNING 04: minimum elevation drop used for Conduit 20
  WARNING 04: minimum elevation drop used for Conduit 21
  WARNING 04: minimum elevation drop used for Conduit 22
  WARNING 04: minimum elevation drop used for Conduit 23
  WARNING 04: minimum elevation drop used for Conduit 24
  WARNING 04: minimum elevation drop used for Conduit 25
  WARNING 04: minimum elevation drop used for Conduit 26
  WARNING 04: minimum elevation drop used for Conduit 27
  WARNING 10: crest elevation raised to downstream invert for regulator Link 48
  WARNING 10: crest elevation raised to downstream invert for regulator Link 49
  WARNING 10: crest elevation raised to downstream invert for regulator Link 56
  
  ****************
  Analysis Options
  ****************
  Flow Units ............... LPS
  Process Models:
    Rainfall/Runoff ........ YES
    RDII ................... NO
    Snowmelt ............... NO
    Groundwater ............ NO
    Flow Routing ........... YES
    Ponding Allowed ........ NO
    Water Quality .......... NO
  Infiltration Method ...... HORTON
  Flow Routing Method ...... DYNWAVE
  Surcharge Method ......... EXTRAN
  Starting Date ............ 01/12/2011 00:00:00
  Ending Date .............. 01/13/2011 00:00:00
  Antecedent Dry Days ...... 0.0
  Report Time Step ......... 00:15:00
  Wet Time Step ............ 00:05:00
  Dry Time Step ............ 01:00:00
  Routing Time Step ........ 1.00 sec
  Variable Time Step ....... YES
  Maximum Trials ........... 8
  Number of Threads ........ 1
  Head Tolerance ........... 0.001500 m
  
  
  **************************        Volume         Depth
  Runoff Quantity Continuity     hectare-m            mm
  **************************     ---------       -------
  Total Precipitation ......         0.001        25.000
  Evaporation Loss .........         0.000         0.000
  Infiltration Loss ........         0.000         0.000
  Surface Runoff ...........         0.001        25.008
  Final Storage ............         0.000         0.000
  Continuity Error (%) .....         0.000
  
  
  **************************        Volume        Volume
  Flow Routing Continuity        hectare-m      10^6 ltr
  **************************     ---------     ---------
  Dry Weather Inflow .......         0.000         0.000
  Wet Weather Inflow .......         0.001         0.010
  Groundwater Inflow .......         0.000         0.000
  RDII Inflow ..............         0.000         0.000
  External Inflow ..........         0.000         0.000
  External Outflow .........         0.001         0.009
  Flooding Loss ............         0.000         0.000
  Evaporation Loss .........         0.000         0.000
  Exfiltration Loss ........         0.000         0.000
  Initial Stored Volume ....         0.000         0.000
  Final Stored Volume ......         0.000         0.000
  Continuity Error (%) .....         0.000
  
  
  ***************************
  Time-Step Critical Elements
  ***************************
  None
  
  
  ********************************
  Highest Flow Instability Indexes
  ********************************
  All links are stable.
  
  
  *********************************
  Most Frequent Nonconverging Nodes
  *********************************
  Convergence obtained at all time steps.
  
  
  *************************
  Routing Time Step Summary
  *************************
  Minimum Time Step           :     0.50 sec
  Average Time Step           :     1.00 sec
  Maximum Time Step           :     1.00 sec
  % of Time in Steady State   :     0.00
  Average Iterations per Step :     2.00
  % of Steps Not Converging   :     0.00
  Time Step Frequencies       :
      1.000 -  0.871 sec      :   100.00 %
      0.871 -  0.758 sec      :     0.00 %
      0.758 -  0.660 sec      :     0.00 %
      0.660 -  0.574 sec      :     0.00 %
      0.574 -  0.500 sec      :     0.00 %
  
  
  ***************************
  Subcatchment Runoff Summary
  ***************************
  
  ------------------------------------------------------------------------------------------------------------------------------
                            Total      Total      Total      Total     Imperv       Perv      Total       Total     Peak  Runoff
                           Precip      Runon       Evap      Infil     Runoff     Runoff     Runoff      Runoff   Runoff   Coeff
  Subcatchment                 mm         mm         mm         mm         mm         mm         mm    10^6 ltr      LPS
  ------------------------------------------------------------------------------------------------------------------------------
  5                         25.00       0.00       0.00       0.00      25.01       0.00      25.01        0.01     0.53   1.000
  
  
  ******************
  Node Depth Summary
  ******************
  
  ---------------------------------------------------------------------------------
                                 Average  Maximum  Maximum  Time of Max    Reported
                                   Depth    Depth      HGL   Occurrence   Max Depth
  Node                 Type       Meters   Meters   Meters  days hr:min      Meters
  ---------------------------------------------------------------------------------
  1                    JUNCTION     0.01     0.02   100.02     0  05:02        0.02
  2                    JUNCTION     0.01     0.02   100.02     0  05:02        0.02
  6                    JUNCTION     0.01     0.02   100.02     0  05:02        0.02
  7                    JUNCTION     0.00     0.02   100.02     0  05:02        0.02
  8                    JUNCTION     0.00     0.02   100.02     0  05:02        0.02
  9                    JUNCTION     0.00     0.02   100.02     0  05:02        0.02
  10                   JUNCTION     0.00     0.02   100.02     0  05:02        0.02
  11                   JUNCTION     0.00     0.01   100.01     0  05:02        0.01
  12                   JUNCTION     0.00     0.01   100.01     0  05:03        0.01
  13                   JUNCTION     0.00     0.01   100.01     0  05:03        0.01
  14                   JUNCTION     0.00     0.01   100.01     0  05:04        0.01
  15                   JUNCTION     0.00     0.01   100.01     0  05:03        0.01
  16                   JUNCTION     0.00     0.01   100.01     0  05:03        0.01
  17                   JUNCTION     0.00     0.01   100.01     0  05:03        0.01
  18                   JUNCTION     0.00     0.01   100.01     0  05:03        0.01
  19                   JUNCTION     0.00     0.01   100.01     0  05:03        0.01
  20                   JUNCTION     0.00     0.01   100.01     0  05:03        0.01
  21                   JUNCTION     0.00     0.02   100.02     0  05:02        0.02
  22                   JUNCTION     0.00     0.02   100.02     0  05:02        0.02
  23                   JUNCTION     0.00     0.02   100.02     0  05:02        0.02
  24                   JUNCTION     0.00     0.02   100.02     0  05:02        0.02
  25                   JUNCTION     0.01     0.02   100.02     0  05:02        0.02
  26                   JUNCTION     0.01     0.02   100.02     0  05:02        0.02
  79                   OUTFALL      0.00     0.00    90.00     0  00:00        0.00
  82                   OUTFALL      0.00     0.00    90.00     0  00:00        0.00
  81                   OUTFALL      0.00     0.00    90.00     0  00:00        0.00
  80                   OUTFALL      0.00     0.00    90.00     0  00:00        0.00
  78                   OUTFALL      0.00     0.00    90.00     0  00:00        0.00
  77                   OUTFALL      0.00     0.00    90.00     0  00:00        0.00
  76                   OUTFALL      0.00     0.00    90.00     0  00:00        0.00
  75                   OUTFALL      0.00     0.00    90.00     0  00:00        0.00
  74                   OUTFALL      0.00     0.00    90.00     0  00:00        0.00
  73                   OUTFALL      0.00     0.00    90.00     0  00:00        0.00
  72                   OUTFALL      0.00     0.00    90.00     0  00:00        0.00
  2_Out                OUTFALL      0.00     0.00    90.00     0  00:00        0.00
  83                   OUTFALL      0.00     0.00    90.00     0  00:00        0.00
  84                   OUTFALL      0.00     0.00    90.00     0  00:00        0.00
  85                   OUTFALL      0.00     0.00    90.00     0  00:00        0.00
  86                   OUTFALL      0.00     0.00    90.00     0  00:00        0.00
  87                   OUTFALL      0.00     0.00    90.00     0  00:00        0.00
  88                   OUTFALL      0.00     0.00    90.00     0  00:00        0.00
  89                   OUTFALL      0.00     0.00    90.00     0  00:00        0.00
  90                   OUTFALL      0.00     0.00    90.00     0  00:00        0.00
  91                   OUTFALL      0.00     0.00    90.00     0  00:00        0.00
  27                   OUTFALL      0.00     0.00    90.00     0  00:00        0.00
  28                   OUTFALL      0.00     0.00    90.00     0  00:00        0.00
  29                   OUTFALL      0.00     0.00    90.00     0  00:00        0.00
  30                   OUTFALL      0.00     0.00    90.00     0  00:00        0.00
  31                   OUTFALL      0.00     0.00    90.00     0  00:00        0.00
  32                   OUTFALL      0.00     0.00    90.00     0  00:00        0.00
  33                   OUTFALL      0.00     0.00    90.00     0  00:00        0.00
  35                   OUTFALL      0.00     0.00    90.00     0  00:00        0.00
  36                   OUTFALL      0.00     0.00    90.00     0  00:00        0.00
  34                   OUTFALL      0.00     0.00    90.00     0  00:00        0.00
  37                   OUTFALL      0.00     0.00    90.00     0  00:00        0.00
  38                   OUTFALL      0.00     0.00    90.00     0  00:00        0.00
  39                   OUTFALL      0.00     0.00    90.00     0  00:00        0.00
  40                   OUTFALL      0.00     0.00    90.00     0  00:00        0.00
  41                   OUTFALL      0.00     0.00    90.00     0  00:00        0.00
  42                   OUTFALL      0.00     0.00    90.00     0  00:00        0.00
  43                   OUTFALL      0.00     0.00    90.00     0  00:00        0.00
  44                   OUTFALL      0.00     0.00    90.00     0  00:00        0.00
  45                   OUTFALL      0.00     0.00    90.00     0  00:00        0.00
  48                   OUTFALL      0.00     0.00    90.00     0  00:00        0.00
  49                   OUTFALL      0.00     0.00    90.00     0  00:00        0.00
  50                   OUTFALL      0.00     0.00    90.00     0  00:00        0.00
  51                   OUTFALL      0.00     0.00    90.00     0  00:00        0.00
  52                   OUTFALL      0.00     0.00    90.00     0  00:00        0.00
  53                   OUTFALL      0.00     0.00    90.00     0  00:00        0.00
  54                   OUTFALL      0.00     0.00    90.00     0  00:00        0.00
  55                   OUTFALL      0.00     0.00    90.00     0  00:00        0.00
  56                   OUTFALL      0.00     0.00    90.00     0  00:00        0.00
  57                   OUTFALL      0.00     0.00    90.00     0  00:00        0.00
  58                   OUTFALL      0.00     0.00    90.00     0  00:00        0.00
  59                   OUTFALL      0.00     0.00    90.00     0  00:00        0.00
  60                   OUTFALL      0.00     0.00    90.00     0  00:00        0.00
  61                   OUTFALL      0.00     0.00    90.00     0  00:00        0.00
  62                   OUTFALL      0.00     0.00    90.00     0  00:00        0.00
  63                   OUTFALL      0.00     0.00    90.00     0  00:00        0.00
  65                   OUTFALL      0.00     0.00    90.00     0  00:00        0.00
  66                   OUTFALL      0.00     0.00    90.00     0  00:00        0.00
  64                   OUTFALL      0.00     0.00    90.00     0  00:00        0.00
  67                   OUTFALL      0.00     0.00    90.00     0  00:00        0.00
  68                   OUTFALL      0.00     0.00    90.00     0  00:00        0.00
  69                   OUTFALL      0.00     0.00    90.00     0  00:00        0.00
  70                   OUTFALL      0.00     0.00    90.00     0  00:00        0.00
  71                   OUTFALL      0.00     0.00    90.00     0  00:00        0.00
  47                   OUTFALL      0.00     0.00    90.00     0  00:00        0.00
  4                    OUTFALL      0.00     0.00     0.00     0  00:00        0.00
  U/S_CB               STORAGE      0.01     0.03   100.03     0  05:02        0.03
  
  
  *******************
  Node Inflow Summary
  *******************
  
  -------------------------------------------------------------------------------------------------
                                  Maximum  Maximum                  Lateral       Total        Flow
                                  Lateral    Total  Time of Max      Inflow      Inflow     Balance
                                   Inflow   Inflow   Occurrence      Volume      Volume       Error
  Node                 Type           LPS      LPS  days hr:min    10^6 ltr    10^6 ltr     Percent
  -------------------------------------------------------------------------------------------------
  1                    JUNCTION      0.00     0.24     0  05:02           0     0.00462       0.000
  2                    JUNCTION      0.00     0.22     0  05:02           0     0.00381       0.000
  6                    JUNCTION      0.00     0.49     0  05:01           0     0.00928       0.001
  7                    JUNCTION      0.00     0.20     0  05:02           0     0.00322       0.000
  8                    JUNCTION      0.00     0.18     0  05:02           0     0.00274       0.000
  9                    JUNCTION      0.00     0.17     0  05:02           0     0.00231       0.000
  10                   JUNCTION      0.00     0.15     0  05:02           0     0.00193       0.000
  11                   JUNCTION      0.00     0.13     0  05:02           0     0.00158       0.000
  12                   JUNCTION      0.00     0.11     0  05:02           0     0.00127       0.000
  13                   JUNCTION      0.00     0.10     0  05:02           0       0.001      -0.000
  14                   JUNCTION      0.00     0.11     0  05:03           0    0.000938       0.000
  15                   JUNCTION      0.00     0.06     0  05:03           0    0.000424       0.001
  16                   JUNCTION      0.00     0.06     0  05:03           0    0.000422       0.001
  17                   JUNCTION      0.00     0.07     0  05:03           0    0.000609      -0.000
  18                   JUNCTION      0.00     0.09     0  05:02           0    0.000826       0.000
  19                   JUNCTION      0.00     0.10     0  05:02           0     0.00108       0.000
  20                   JUNCTION      0.00     0.12     0  05:02           0     0.00139       0.000
  21                   JUNCTION      0.00     0.14     0  05:02           0     0.00171       0.000
  22                   JUNCTION      0.00     0.15     0  05:02           0     0.00208       0.000
  23                   JUNCTION      0.00     0.19     0  05:02           0     0.00283       0.000
  24                   JUNCTION      0.00     0.21     0  05:02           0     0.00332      -0.000
  25                   JUNCTION      0.00     0.23     0  05:02           0      0.0039       0.000
  26                   JUNCTION      0.00     0.25     0  05:02           0     0.00466       0.000
  79                   OUTFALL       0.00     0.02     0  05:02           0    0.000413       0.000
  82                   OUTFALL       0.00     0.02     0  05:02           0    0.000761       0.000
  81                   OUTFALL       0.00     0.02     0  05:02           0    0.000587       0.000
  80                   OUTFALL       0.00     0.02     0  05:02           0    0.000485       0.000
  78                   OUTFALL       0.00     0.02     0  05:02           0    0.000367       0.000
  77                   OUTFALL       0.00     0.02     0  05:02           0    0.000327       0.000
  76                   OUTFALL       0.00     0.02     0  05:03           0     0.00031       0.000
  75                   OUTFALL       0.00     0.02     0  05:03           0     0.00025       0.000
  74                   OUTFALL       0.00     0.02     0  05:03           0    0.000217       0.000
  73                   OUTFALL       0.00     0.01     0  05:03           0    0.000187       0.000
  72                   OUTFALL       0.00     0.00     0  00:00           0           0       0.000 ltr
  2_Out                OUTFALL       0.00     0.02     0  05:02           0    0.000585       0.000
  83                   OUTFALL       0.00     0.02     0  05:02           0    0.000486       0.000
  84                   OUTFALL       0.00     0.02     0  05:02           0    0.000428       0.000
  85                   OUTFALL       0.00     0.02     0  05:02           0    0.000384       0.000
  86                   OUTFALL       0.00     0.02     0  05:02           0    0.000345       0.000
  87                   OUTFALL       0.00     0.02     0  05:02           0    0.000308       0.000
  88                   OUTFALL       0.00     0.02     0  05:03           0    0.000269       0.000
  89                   OUTFALL       0.00     0.01     0  05:03           0    0.000228       0.000
  90                   OUTFALL       0.00     0.01     0  05:04           0    0.000115       0.000
  91                   OUTFALL       0.00     0.01     0  05:03           0    0.000128       0.000
  27                   OUTFALL       0.00     0.00     0  00:00           0           0       0.000 ltr
  28                   OUTFALL       0.00     0.00     0  00:00           0           0       0.000 ltr
  29                   OUTFALL       0.00     0.00     0  00:00           0           0       0.000 ltr
  30                   OUTFALL       0.00     0.00     0  00:00           0           0       0.000 ltr
  31                   OUTFALL       0.00     0.00     0  00:00           0           0       0.000 ltr
  32                   OUTFALL       0.00     0.00     0  00:00           0           0       0.000 ltr
  33                   OUTFALL       0.00     0.00     0  00:00           0           0       0.000 ltr
  35                   OUTFALL       0.00     0.00     0  00:00           0           0       0.000 ltr
  36                   OUTFALL       0.00     0.00     0  00:00           0           0       0.000 ltr
  34                   OUTFALL       0.00     0.00     0  00:00           0           0       0.000 ltr
  37                   OUTFALL       0.00     0.00     0  00:00           0           0       0.000 ltr
  38                   OUTFALL       0.00     0.00     0  00:00           0           0       0.000 ltr
  39                   OUTFALL       0.00     0.00     0  00:00           0           0       0.000 ltr
  40                   OUTFALL       0.00     0.00     0  00:00           0           0       0.000 ltr
  41                   OUTFALL       0.00     0.00     0  00:00           0           0       0.000 ltr
  42                   OUTFALL       0.00     0.00     0  00:00           0           0       0.000 ltr
  43                   OUTFALL       0.00     0.00     0  00:00           0           0       0.000 ltr
  44                   OUTFALL       0.00     0.00     0  00:00           0           0       0.000 ltr
  45                   OUTFALL       0.00     0.00     0  00:00           0           0       0.000 ltr
  48                   OUTFALL       0.00     0.01     0  05:03           0    6.59e-05       0.000
  49                   OUTFALL       0.00     0.01     0  05:03           0    6.59e-05       0.000
  50                   OUTFALL       0.00     0.00     0  00:00           0           0       0.000 ltr
  51                   OUTFALL       0.00     0.00     0  00:00           0           0       0.000 ltr
  52                   OUTFALL       0.00     0.00     0  00:00           0           0       0.000 ltr
  53                   OUTFALL       0.00     0.00     0  00:00           0           0       0.000 ltr
  54                   OUTFALL       0.00     0.00     0  00:00           0           0       0.000 ltr
  55                   OUTFALL       0.00     0.00     0  00:00           0           0       0.000 ltr
  56                   OUTFALL       0.00     0.02     0  05:02           0    0.000337       0.000
  57                   OUTFALL       0.00     0.00     0  00:00           0           0       0.000 ltr
  58                   OUTFALL       0.00     0.00     0  00:00           0           0       0.000 ltr
  59                   OUTFALL       0.00     0.00     0  00:00           0           0       0.000 ltr
  60                   OUTFALL       0.00     0.00     0  00:00           0           0       0.000 ltr
  61                   OUTFALL       0.00     0.00     0  00:00           0           0       0.000 ltr
  62                   OUTFALL       0.00     0.00     0  00:00           0           0       0.000 ltr
  63                   OUTFALL       0.00     0.00     0  00:00           0           0       0.000 ltr
  65                   OUTFALL       0.00     0.00     0  00:00           0           0       0.000 ltr
  66                   OUTFALL       0.00     0.00     0  00:00           0           0       0.000 ltr
  64                   OUTFALL       0.00     0.00     0  00:00           0           0       0.000 ltr
  67                   OUTFALL       0.00     0.00     0  00:00           0           0       0.000 ltr
  68                   OUTFALL       0.00     0.00     0  00:00           0           0       0.000 ltr
  69                   OUTFALL       0.00     0.00     0  00:00           0           0       0.000 ltr
  70                   OUTFALL       0.00     0.00     0  00:00           0           0       0.000 ltr
  71                   OUTFALL       0.00     0.00     0  00:00           0           0       0.000 ltr
  47                   OUTFALL       0.00     0.10     0  05:04           0    0.000822       0.000
  4                    OUTFALL       0.00     0.02     0  05:02           0     0.00081       0.000
  U/S_CB               STORAGE       0.53     0.53     0  04:15     0.00963     0.00963       0.001
  
  
  **********************
  Node Surcharge Summary
  **********************
  
  No nodes were surcharged.
  
  
  *********************
  Node Flooding Summary
  *********************
  
  No nodes were flooded.
  
  
  **********************
  Storage Volume Summary
  **********************
  
  ------------------------------------------------------------------------------------------------
                         Average    Avg   Evap  Exfil     Maximum    Max    Time of Max    Maximum
                          Volume   Pcnt   Pcnt   Pcnt      Volume   Pcnt     Occurrence    Outflow
  Storage Unit           1000 mģ   Full   Loss   Loss     1000 mģ   Full    days hr:min        LPS
  ------------------------------------------------------------------------------------------------
  U/S_CB                   0.001    1.0    0.0    0.0       0.003    2.5       0  05:02       0.49
  
  
  ***********************
  Outfall Loading Summary
  ***********************
  
  -----------------------------------------------------------
                         Flow       Avg       Max       Total
                         Freq      Flow      Flow      Volume
  Outfall Node           Pcnt       LPS       LPS    10^6 ltr
  -----------------------------------------------------------
  79                     0.00      0.00      0.00       0.000
  82                     0.00      0.00      0.00       0.001
  81                     0.00      0.00      0.00       0.001
  80                     0.00      0.00      0.00       0.000
  78                     0.00      0.00      0.00       0.000
  77                     0.00      0.00      0.00       0.000
  76                     0.00      0.00      0.00       0.000
  75                     0.00      0.00      0.00       0.000
  74                     0.00      0.00      0.00       0.000
  73                     0.00      0.00      0.00       0.000
  72                     0.00      0.00      0.00       0.000
  2_Out                  0.00      0.00      0.00       0.001
  83                     0.00      0.00      0.00       0.000
  84                     0.00      0.00      0.00       0.000
  85                     0.00      0.00      0.00       0.000
  86                     0.00      0.00      0.00       0.000
  87                     0.00      0.00      0.00       0.000
  88                     0.00      0.00      0.00       0.000
  89                     0.00      0.00      0.00       0.000
  90                     0.00      0.00      0.00       0.000
  91                     0.00      0.00      0.00       0.000
  27                     0.00      0.00      0.00       0.000
  28                     0.00      0.00      0.00       0.000
  29                     0.00      0.00      0.00       0.000
  30                     0.00      0.00      0.00       0.000
  31                     0.00      0.00      0.00       0.000
  32                     0.00      0.00      0.00       0.000
  33                     0.00      0.00      0.00       0.000
  35                     0.00      0.00      0.00       0.000
  36                     0.00      0.00      0.00       0.000
  34                     0.00      0.00      0.00       0.000
  37                     0.00      0.00      0.00       0.000
  38                     0.00      0.00      0.00       0.000
  39                     0.00      0.00      0.00       0.000
  40                     0.00      0.00      0.00       0.000
  41                     0.00      0.00      0.00       0.000
  42                     0.00      0.00      0.00       0.000
  43                     0.00      0.00      0.00       0.000
  44                     0.00      0.00      0.00       0.000
  45                     0.00      0.00      0.00       0.000
  48                     0.00      0.00      0.00       0.000
  49                     0.00      0.00      0.00       0.000
  50                     0.00      0.00      0.00       0.000
  51                     0.00      0.00      0.00       0.000
  52                     0.00      0.00      0.00       0.000
  53                     0.00      0.00      0.00       0.000
  54                     0.00      0.00      0.00       0.000
  55                     0.00      0.00      0.00       0.000
  56                     0.00      0.00      0.00       0.000
  57                     0.00      0.00      0.00       0.000
  58                     0.00      0.00      0.00       0.000
  59                     0.00      0.00      0.00       0.000
  60                     0.00      0.00      0.00       0.000
  61                     0.00      0.00      0.00       0.000
  62                     0.00      0.00      0.00       0.000
  63                     0.00      0.00      0.00       0.000
  65                     0.00      0.00      0.00       0.000
  66                     0.00      0.00      0.00       0.000
  64                     0.00      0.00      0.00       0.000
  67                     0.00      0.00      0.00       0.000
  68                     0.00      0.00      0.00       0.000
  69                     0.00      0.00      0.00       0.000
  70                     0.00      0.00      0.00       0.000
  71                     0.00      0.00      0.00       0.000
  47                    13.06      0.07      0.10       0.001
  4                      0.00      0.00      0.00       0.001
  -----------------------------------------------------------
  System                 0.20      0.07      0.49       0.009
  
  
  ********************
  Link Flow Summary
  ********************
  
  -----------------------------------------------------------------------------
                                 Maximum  Time of Max   Maximum    Max/    Max/
                                  |Flow|   Occurrence   |Veloc|    Full    Full
  Link                 Type          LPS  days hr:min     m/sec    Flow   Depth
  -----------------------------------------------------------------------------
  1                    CONDUIT      0.49     0  05:01      0.28    0.14    0.16
  2                    CONDUIT      0.22     0  05:02      0.15    0.06    0.14
  5                    CONDUIT      0.24     0  05:02      0.16    0.07    0.14
  7                    CONDUIT      0.20     0  05:02      0.15    0.06    0.13
  8                    CONDUIT      0.18     0  05:02      0.15    0.05    0.12
  9                    CONDUIT      0.17     0  05:02      0.15    0.05    0.12
  10                   CONDUIT      0.15     0  05:02      0.14    0.04    0.11
  11                   CONDUIT      0.13     0  05:02      0.14    0.04    0.10
  12                   CONDUIT      0.11     0  05:02      0.14    0.03    0.09
  13                   CONDUIT      0.10     0  05:02      0.15    0.03    0.08
  14                   CONDUIT      0.08     0  05:03      0.21    0.02    0.06
  15                   CONDUIT      0.03     0  05:03      0.10    0.01    0.04
  16                   CONDUIT      0.06     0  05:03      0.13    0.02    0.06
  17                   CONDUIT      0.06     0  05:03      0.10    0.02    0.07
  18                   CONDUIT      0.07     0  05:03      0.11    0.02    0.08
  19                   CONDUIT      0.09     0  05:02      0.12    0.02    0.08
  20                   CONDUIT      0.10     0  05:02      0.13    0.03    0.09
  21                   CONDUIT      0.12     0  05:02      0.13    0.03    0.10
  22                   CONDUIT      0.14     0  05:02      0.14    0.04    0.11
  23                   CONDUIT      0.15     0  05:02      0.14    0.04    0.11
  24                   CONDUIT      0.19     0  05:02      0.16    0.05    0.12
  25                   CONDUIT      0.21     0  05:02      0.16    0.06    0.13
  26                   CONDUIT      0.23     0  05:02      0.16    0.07    0.14
  27                   CONDUIT      0.25     0  05:02      0.16    0.07    0.14
  6                    ORIFICE      0.02     0  05:02                          
  28                   ORIFICE      0.00     0  00:00                      0.00
  29                   ORIFICE      0.00     0  00:00                      0.00
  30                   ORIFICE      0.00     0  00:00                      0.00
  31                   ORIFICE      0.00     0  00:00                      0.00
  32                   ORIFICE      0.00     0  00:00                      0.00
  33                   ORIFICE      0.00     0  00:00                      0.00
  34                   ORIFICE      0.00     0  00:00                      0.00
  35                   ORIFICE      0.00     0  00:00                      0.00
  36                   ORIFICE      0.00     0  00:00                      0.00
  37                   ORIFICE      0.00     0  00:00                      0.00
  38                   ORIFICE      0.00     0  00:00                      0.00
  39                   ORIFICE      0.00     0  00:00                      0.00
  40                   ORIFICE      0.00     0  00:00                      0.00
  41                   ORIFICE      0.00     0  00:00                      0.00
  42                   ORIFICE      0.00     0  00:00                      0.00
  43                   ORIFICE      0.00     0  00:00                      0.00
  44                   ORIFICE      0.00     0  00:00                      0.00
  45                   ORIFICE      0.00     0  00:00                      0.00
  46                   ORIFICE      0.00     0  00:00                      0.00
  48                   ORIFICE      0.01     0  05:03                      0.93
  49                   ORIFICE      0.01     0  05:03                      0.93
  50                   ORIFICE      0.00     0  00:00                      0.00
  51                   ORIFICE      0.00     0  00:00                      0.00
  52                   ORIFICE      0.00     0  00:00                      0.00
  53                   ORIFICE      0.00     0  00:00                      0.00
  54                   ORIFICE      0.00     0  00:00                      0.00
  55                   ORIFICE      0.00     0  00:00                      0.00
  56                   ORIFICE      0.02     0  05:02                      1.00
  57                   ORIFICE      0.00     0  00:00                      0.00
  58                   ORIFICE      0.00     0  00:00                      0.00
  59                   ORIFICE      0.00     0  00:00                      0.00
  60                   ORIFICE      0.00     0  00:00                      0.00
  61                   ORIFICE      0.00     0  00:00                      0.00
  62                   ORIFICE      0.00     0  00:00                      0.00
  63                   ORIFICE      0.00     0  00:00                      0.00
  64                   ORIFICE      0.00     0  00:00                      0.00
  65                   ORIFICE      0.00     0  00:00                      0.00
  66                   ORIFICE      0.00     0  00:00                      0.00
  67                   ORIFICE      0.00     0  00:00                      0.00
  68                   ORIFICE      0.00     0  00:00                      0.00
  69                   ORIFICE      0.00     0  00:00                      0.00
  70                   ORIFICE      0.00     0  00:00                      0.00
  71                   ORIFICE      0.00     0  00:00                      0.00
  72                   ORIFICE      0.00     0  00:00                          
  73                   ORIFICE      0.01     0  05:03                          
  74                   ORIFICE      0.02     0  05:03                          
  75                   ORIFICE      0.02     0  05:03                          
  76                   ORIFICE      0.02     0  05:03                          
  77                   ORIFICE      0.02     0  05:02                          
  78                   ORIFICE      0.02     0  05:02                          
  79                   ORIFICE      0.02     0  05:02                          
  80                   ORIFICE      0.02     0  05:02                          
  81                   ORIFICE      0.02     0  05:02                          
  82                   ORIFICE      0.02     0  05:02                          
  83                   ORIFICE      0.02     0  05:02                          
  84                   ORIFICE      0.02     0  05:02                          
  85                   ORIFICE      0.02     0  05:02                          
  86                   ORIFICE      0.02     0  05:02                          
  87                   ORIFICE      0.02     0  05:02                          
  88                   ORIFICE      0.02     0  05:03                          
  89                   ORIFICE      0.01     0  05:03                          
  90                   ORIFICE      0.01     0  05:04                          
  91                   ORIFICE      0.01     0  05:03                          
  92                   ORIFICE      0.10     0  05:04                      0.04
  93                   ORIFICE      0.02     0  05:02                          
  
  
  ***************************
  Flow Classification Summary
  ***************************
  
  -------------------------------------------------------------------------------------
                      Adjusted    ---------- Fraction of Time in Flow Class ---------- 
                       /Actual         Up    Down  Sub   Sup   Up    Down  Norm  Inlet 
  Conduit               Length    Dry  Dry   Dry   Crit  Crit  Crit  Crit  Ltd   Ctrl  
  -------------------------------------------------------------------------------------
  1                       1.41   0.00  0.00  0.00  1.00  0.00  0.00  0.00  0.00  0.00
  2                       1.41   0.01  0.00  0.00  0.99  0.00  0.00  0.00  0.00  0.00
  5                       1.41   0.01  0.00  0.00  0.99  0.00  0.00  0.00  0.00  0.00
  7                       1.41   0.04  0.00  0.00  0.96  0.00  0.00  0.00  0.00  0.00
  8                       1.41   0.40  0.00  0.00  0.60  0.00  0.00  0.00  0.00  0.00
  9                       1.41   0.56  0.00  0.00  0.44  0.00  0.00  0.00  0.00  0.00
  10                      1.41   0.63  0.00  0.00  0.37  0.00  0.00  0.00  0.00  0.00
  11                      1.41   0.67  0.00  0.00  0.33  0.00  0.00  0.00  0.00  0.00
  12                      1.41   0.69  0.00  0.00  0.31  0.00  0.00  0.00  0.00  0.00
  13                      1.41   0.72  0.00  0.00  0.28  0.00  0.00  0.00  0.00  0.00
  14                      1.41   0.74  0.00  0.00  0.19  0.07  0.00  0.00  0.00  0.00
  15                      1.41   0.77  0.00  0.00  0.23  0.00  0.00  0.00  0.00  0.00
  16                      1.41   0.14  0.00  0.00  0.86  0.00  0.00  0.00  0.00  0.00
  17                      1.41   0.13  0.00  0.00  0.87  0.00  0.00  0.00  0.00  0.00
  18                      1.41   0.75  0.00  0.00  0.25  0.00  0.00  0.00  0.00  0.00
  19                      1.41   0.72  0.00  0.00  0.28  0.00  0.00  0.00  0.00  0.00
  20                      1.41   0.70  0.00  0.00  0.30  0.00  0.00  0.00  0.00  0.00
  21                      1.41   0.67  0.00  0.00  0.33  0.00  0.00  0.00  0.00  0.00
  22                      1.41   0.63  0.00  0.00  0.37  0.00  0.00  0.00  0.00  0.00
  23                      1.41   0.56  0.00  0.00  0.44  0.00  0.00  0.00  0.00  0.00
  24                      1.41   0.40  0.00  0.00  0.60  0.00  0.00  0.00  0.00  0.00
  25                      1.41   0.04  0.00  0.00  0.96  0.00  0.00  0.00  0.00  0.00
  26                      1.41   0.01  0.00  0.00  0.99  0.00  0.00  0.00  0.00  0.00
  27                      1.41   0.01  0.00  0.00  0.99  0.00  0.00  0.00  0.00  0.00
  
  
  *************************
  Conduit Surcharge Summary
  *************************
  
  No conduits were surcharged.
  

  Analysis begun on:  Tue Jun 23 20:38:08 2026
  Analysis ended on:  Tue Jun 23 20:38:09 2026
  Total elapsed time: 00:00:01