
  EPA STORM WATER MANAGEMENT MODEL - VERSION 5.2 (Build 5.2.4)
  ------------------------------------------------------------

       Extran with surcharge in 2 foot circular conduits 
       SWMM CRADA Example 1 
  WARNING 04: minimum elevation drop used for Conduit pipe1
  WARNING 04: minimum elevation drop used for Conduit pipe2
  WARNING 04: minimum elevation drop used for Conduit pipe3
  WARNING 04: minimum elevation drop used for Conduit pipe4
  WARNING 04: minimum elevation drop used for Conduit pipe5
  WARNING 04: minimum elevation drop used for Conduit pipe6
  WARNING 04: minimum elevation drop used for Conduit pipe7
  WARNING 04: minimum elevation drop used for Conduit pipe8
  WARNING 04: minimum elevation drop used for Conduit pipe9
  
  ****************
  Analysis Options
  ****************
  Flow Units ............... CFS
  Process Models:
    Rainfall/Runoff ........ NO
    RDII ................... NO
    Snowmelt ............... NO
    Groundwater ............ NO
    Flow Routing ........... YES
    Ponding Allowed ........ NO
    Water Quality .......... NO
  Flow Routing Method ...... DYNWAVE
  Surcharge Method ......... EXTRAN
  Starting Date ............ 02/22/2002 00:00:00
  Ending Date .............. 02/22/2002 01:40:00
  Antecedent Dry Days ...... 0.0
  Report Time Step ......... 00:01:00
  Routing Time Step ........ 1.00 sec
  Variable Time Step ....... YES
  Maximum Trials ........... 8
  Number of Threads ........ 1
  Head Tolerance ........... 0.005000 ft
  
  
  **************************        Volume        Volume
  Flow Routing Continuity        acre-feet      10^6 gal
  **************************     ---------     ---------
  Dry Weather Inflow .......         0.000         0.000
  Wet Weather Inflow .......         0.000         0.000
  Groundwater Inflow .......         0.000         0.000
  RDII Inflow ..............         0.000         0.000
  External Inflow ..........         1.911         0.623
  External Outflow .........         1.798         0.586
  Flooding Loss ............         0.000         0.000
  Evaporation Loss .........         0.000         0.000
  Exfiltration Loss ........         0.000         0.000
  Initial Stored Volume ....         0.000         0.000
  Final Stored Volume ......         0.078         0.026
  Continuity Error (%) .....         1.802
  
  
  ***************************
  Time-Step Critical Elements
  ***************************
  None
  
  
  ********************************
  Highest Flow Instability Indexes
  ********************************
  All links are stable.
  
  
  *********************************
  Most Frequent Nonconverging Nodes
  *********************************
  Node Outlet (2.72%)
  Node side1 (1.48%)
  Node Inflow (1.43%)
  Node mid1 (1.42%)
  Node mid2 (1.32%)
  
  
  *************************
  Routing Time Step Summary
  *************************
  Minimum Time Step           :     0.37 sec
  Average Time Step           :     1.00 sec
  Maximum Time Step           :     1.00 sec
  % of Time in Steady State   :     0.00
  Average Iterations per Step :     2.19
  % of Steps Not Converging   :     2.72
  Time Step Frequencies       :
      1.000 -  0.871 sec      :    99.92 %
      0.871 -  0.758 sec      :     0.03 %
      0.758 -  0.660 sec      :     0.00 %
      0.660 -  0.574 sec      :     0.02 %
      0.574 -  0.500 sec      :     0.03 %
  
  
  ******************
  Node Depth Summary
  ******************
  
  ---------------------------------------------------------------------------------
                                 Average  Maximum  Maximum  Time of Max    Reported
                                   Depth    Depth      HGL   Occurrence   Max Depth
  Node                 Type         Feet     Feet     Feet  days hr:min        Feet
  ---------------------------------------------------------------------------------
  Inflow               JUNCTION     6.91     7.71    17.71     0  00:16        7.35
  mid1                 JUNCTION     6.56     7.38    17.38     0  00:16        7.03
  mid2                 JUNCTION     6.22     7.04    17.04     0  00:16        6.72
  mid3                 JUNCTION     5.88     6.71    16.71     0  00:15        6.42
  mid4                 JUNCTION     5.55     6.34    16.34     0  00:16        6.12
  mid5                 JUNCTION     5.23     5.92    15.92     0  00:16        5.80
  mid6                 JUNCTION     4.91     5.52    15.52     0  00:16        5.46
  mid7                 JUNCTION     4.60     5.18    15.18     0  00:16        5.14
  mid8                 JUNCTION     4.29     4.83    14.83     0  00:18        4.83
  mid9                 JUNCTION     3.35     3.79    13.79     0  00:18        3.78
  side1                JUNCTION     6.15     9.67    19.67     0  00:13        7.10
  side2                JUNCTION     5.84     9.65    19.65     0  00:14        6.71
  side3                JUNCTION     5.53     9.24    19.24     0  00:15        6.40
  side4                JUNCTION     5.22     8.89    18.89     0  00:14        6.35
  side5                JUNCTION     4.90     5.92    15.92     0  00:17        5.89
  side6                JUNCTION     4.58     5.58    15.58     0  00:17        5.48
  side7                JUNCTION     4.12     5.18    15.18     0  00:22        5.18
  side8                JUNCTION     0.00     0.00    10.00     0  00:00        0.00
  Outlet               OUTFALL      0.69     0.78    10.78     0  00:18        0.78
  
  
  *******************
  Node Inflow Summary
  *******************
  
  -------------------------------------------------------------------------------------------------
                                  Maximum  Maximum                  Lateral       Total        Flow
                                  Lateral    Total  Time of Max      Inflow      Inflow     Balance
                                   Inflow   Inflow   Occurrence      Volume      Volume       Error
  Node                 Type           CFS      CFS  days hr:min    10^6 gal    10^6 gal     Percent
  -------------------------------------------------------------------------------------------------
  Inflow               JUNCTION     15.00    15.00     0  00:15       0.623       0.623       0.316
  mid1                 JUNCTION      0.00    15.06     0  00:15           0       0.621       0.593
  mid2                 JUNCTION      0.00    15.16     0  00:15           0       0.616       0.596
  mid3                 JUNCTION      0.00    15.29     0  00:15           0       0.612       0.602
  mid4                 JUNCTION      0.00    15.50     0  00:15           0       0.608       0.605
  mid5                 JUNCTION      0.00    15.52     0  00:15           0       0.603       0.610
  mid6                 JUNCTION      0.00    15.54     0  00:16           0       0.599       0.617
  mid7                 JUNCTION      0.00    15.24     0  00:17           0       0.595       0.625
  mid8                 JUNCTION      0.00    15.04     0  00:17           0        0.59       0.667
  mid9                 JUNCTION      0.00    15.05     0  00:18           0       0.587       0.120
  side1                JUNCTION      0.00     1.16     0  00:12           0    0.000824     652.876
  side2                JUNCTION      0.00     1.54     0  00:13           0    0.000799     877.657
  side3                JUNCTION      0.00     1.55     0  00:13           0    0.000795     800.002
  side4                JUNCTION      0.00     1.35     0  00:14           0    0.000845     432.872
  side5                JUNCTION      0.00     1.16     0  00:15           0    0.000929     238.185
  side6                JUNCTION      0.00     0.84     0  00:16           0    0.000837     197.028
  side7                JUNCTION      0.00     0.22     0  00:18           0    0.000611     326.867
  side8                JUNCTION      0.00     0.00     0  00:00           0           0       0.000 gal
  Outlet               OUTFALL       0.00    15.06     0  00:18           0       0.586       0.000
  
  
  **********************
  Node Surcharge Summary
  **********************
  
  Surcharging occurs when water rises above the top of the highest conduit.
  ---------------------------------------------------------------------
                                               Max. Height   Min. Depth
                                   Hours       Above Crown    Below Rim
  Node                 Type      Surcharged           Feet         Feet
  ---------------------------------------------------------------------
  Inflow               JUNCTION        1.50          2.708        2.292
  mid1                 JUNCTION        1.49          2.384        2.616
  mid2                 JUNCTION        1.49          2.036        2.964
  mid3                 JUNCTION        1.47          1.706        3.294
  mid4                 JUNCTION        1.46          1.338        3.662
  mid5                 JUNCTION        1.45          0.921        4.079
  mid6                 JUNCTION        1.43          0.517        4.483
  mid7                 JUNCTION        1.41          0.182        4.818
  side1                JUNCTION        1.44          3.666        0.334
  side2                JUNCTION        1.43          3.648        0.352
  side3                JUNCTION        1.42          3.237        0.763
  side4                JUNCTION        1.38          2.895        1.105
  
  
  *********************
  Node Flooding Summary
  *********************
  
  No nodes were flooded.
  
  
  ***********************
  Outfall Loading Summary
  ***********************
  
  -----------------------------------------------------------
                         Flow       Avg       Max       Total
                         Freq      Flow      Flow      Volume
  Outfall Node           Pcnt       CFS       CFS    10^6 gal
  -----------------------------------------------------------
  Outlet                88.74     14.71     15.06       0.586
  -----------------------------------------------------------
  System                88.74     14.71     15.06       0.586
  
  
  ********************
  Link Flow Summary
  ********************
  
  -----------------------------------------------------------------------------
                                 Maximum  Time of Max   Maximum    Max/    Max/
                                  |Flow|   Occurrence   |Veloc|    Full    Full
  Link                 Type          CFS  days hr:min    ft/sec    Flow   Depth
  -----------------------------------------------------------------------------
  pipe1                CONDUIT     15.02     0  00:15      4.78   17.76    1.00
  side1                CONDUIT      1.16     0  00:12      2.05    0.12    1.00
  pipe2                CONDUIT     15.08     0  00:15      4.80   17.84    1.00
  side2                CONDUIT      1.54     0  00:13      2.68    0.16    1.00
  pipe3                CONDUIT     15.17     0  00:15      4.83   17.95    1.00
  side3                CONDUIT      1.55     0  00:13      2.65    0.16    1.00
  pipe4                CONDUIT     15.31     0  00:15      4.87   18.11    1.00
  side4                CONDUIT      1.35     0  00:14      2.46    0.14    1.00
  pipe5                CONDUIT     15.52     0  00:15      4.94   18.36    1.00
  side5                CONDUIT      1.16     0  00:15      2.27    0.12    0.96
  pipe6                CONDUIT     15.54     0  00:16      4.95   18.38    1.00
  side6                CONDUIT      0.84     0  00:16      1.70    0.09    0.79
  pipe7                CONDUIT     15.24     0  00:17      4.85   18.03    1.00
  side7                CONDUIT      0.22     0  00:18      0.50    0.02    0.59
  pipe8                CONDUIT     15.04     0  00:17      4.87   17.79    0.96
  side8                CONDUIT      0.00     0  00:00      0.00    0.00    0.50
  pipe9                CONDUIT     15.05     0  00:18      5.55   17.80    0.81
  outlet               CONDUIT     15.06     0  00:18     13.17    0.33    0.39
  
  
  ***************************
  Flow Classification Summary
  ***************************
  
  -------------------------------------------------------------------------------------
                      Adjusted    ---------- Fraction of Time in Flow Class ---------- 
                       /Actual         Up    Down  Sub   Sup   Up    Down  Norm  Inlet 
  Conduit               Length    Dry  Dry   Dry   Crit  Crit  Crit  Crit  Ltd   Ctrl  
  -------------------------------------------------------------------------------------
  pipe1                   1.00   0.01  0.00  0.00  0.96  0.00  0.00  0.02  0.00  0.00
  side1                   1.00   0.01  0.09  0.00  0.88  0.00  0.02  0.00  0.00  0.00
  pipe2                   1.00   0.03  0.00  0.00  0.95  0.00  0.00  0.02  0.00  0.00
  side2                   1.00   0.03  0.08  0.00  0.87  0.00  0.02  0.00  0.00  0.00
  pipe3                   1.00   0.04  0.00  0.00  0.94  0.00  0.00  0.02  0.00  0.00
  side3                   1.00   0.04  0.07  0.00  0.86  0.00  0.02  0.00  0.00  0.00
  pipe4                   1.00   0.06  0.00  0.00  0.93  0.00  0.00  0.02  0.00  0.00
  side4                   1.00   0.06  0.07  0.00  0.85  0.00  0.02  0.00  0.00  0.00
  pipe5                   1.00   0.07  0.00  0.00  0.92  0.00  0.00  0.02  0.00  0.00
  side5                   1.00   0.07  0.06  0.00  0.85  0.00  0.02  0.00  0.00  0.00
  pipe6                   1.00   0.08  0.00  0.00  0.91  0.00  0.00  0.02  0.00  0.00
  side6                   1.00   0.08  0.06  0.00  0.83  0.00  0.02  0.00  0.00  0.00
  pipe7                   1.00   0.09  0.00  0.00  0.90  0.00  0.00  0.01  0.00  0.00
  side7                   1.00   0.09  0.07  0.00  0.78  0.00  0.07  0.00  0.00  0.00
  pipe8                   1.00   0.10  0.00  0.00  0.89  0.00  0.00  0.01  0.00  0.00
  side8                   1.00   0.10  0.90  0.00  0.00  0.00  0.00  0.00  0.00  0.00
  pipe9                   1.00   0.11  0.00  0.00  0.00  0.00  0.00  0.89  0.00  0.00
  outlet                  1.00   0.11  0.00  0.00  0.00  0.89  0.00  0.00  0.07  0.00
  
  
  *************************
  Conduit Surcharge Summary
  *************************
  
  ----------------------------------------------------------------------------
                                                           Hours        Hours 
                         --------- Hours Full --------   Above Full   Capacity
  Conduit                Both Ends  Upstream  Dnstream   Normal Flow   Limited
  ----------------------------------------------------------------------------
  pipe1                       1.49      1.50      1.49      1.63         1.49
  side1                       1.44      1.44      1.49      0.01         0.01
  pipe2                       1.49      1.49      1.49      1.61         1.49
  side2                       1.43      1.43      1.49      0.01         0.01
  pipe3                       1.47      1.49      1.47      1.59         1.47
  side3                       1.42      1.42      1.47      0.01         0.01
  pipe4                       1.46      1.47      1.46      1.57         1.46
  side4                       1.38      1.38      1.46      0.01         0.01
  pipe5                       1.45      1.46      1.45      1.55         1.45
  side5                       0.01      0.01      1.45      0.01         0.01
  pipe6                       1.43      1.45      1.43      1.53         1.43
  side6                       0.01      0.01      1.43      0.01         0.01
  pipe7                       1.41      1.43      1.41      1.51         1.41
  side7                       0.01      0.01      1.41      0.01         0.01
  pipe8                       0.01      1.41      0.01      1.50         0.01
  pipe9                       0.01      0.01      0.01      1.48         0.01
  

  Analysis begun on:  Tue Jun 23 20:38:29 2026
  Analysis ended on:  Tue Jun 23 20:38:29 2026
  Total elapsed time: < 1 sec