
  EPA STORM WATER MANAGEMENT MODEL - VERSION 5.2 (Build 5.2.4)
  ------------------------------------------------------------

  
  ****************
  Analysis Options
  ****************
  Flow Units ............... GPM
  Process Models:
    Rainfall/Runoff ........ NO
    RDII ................... NO
    Snowmelt ............... NO
    Groundwater ............ NO
    Flow Routing ........... YES
    Ponding Allowed ........ NO
    Water Quality .......... NO
  Flow Routing Method ...... DYNWAVE
  Surcharge Method ......... EXTRAN
  Starting Date ............ 01/01/2002 00:00:00
  Ending Date .............. 01/01/2002 12:00:00
  Antecedent Dry Days ...... 5.0
  Report Time Step ......... 00:05:00
  Routing Time Step ........ 30.00 sec
  Variable Time Step ....... YES
  Maximum Trials ........... 8
  Number of Threads ........ 1
  Head Tolerance ........... 0.005000 ft
  
  
  **************************        Volume        Volume
  Flow Routing Continuity        acre-feet      10^6 gal
  **************************     ---------     ---------
  Dry Weather Inflow .......         0.595         0.194
  Wet Weather Inflow .......         0.000         0.000
  Groundwater Inflow .......         0.000         0.000
  RDII Inflow ..............         0.000         0.000
  External Inflow ..........         0.000         0.000
  External Outflow .........         0.299         0.097
  Flooding Loss ............         0.207         0.068
  Evaporation Loss .........         0.000         0.000
  Exfiltration Loss ........         0.000         0.000
  Initial Stored Volume ....         0.009         0.003
  Final Stored Volume ......         0.086         0.028
  Continuity Error (%) .....         1.823
  
  
  *************************
  Highest Continuity Errors
  *************************
  Node 28 (99.60%)
  Node 24 (98.01%)
  Node 30 (53.95%)
  Node 16 (20.26%)
  Node 34 (9.86%)
  
  
  ***************************
  Time-Step Critical Elements
  ***************************
  Link 0 (94.37%)
  Link 36 (5.47%)
  
  
  ********************************
  Highest Flow Instability Indexes
  ********************************
  Link 7 (90)
  Link 30 (67)
  Link 29 (30)
  Link 31 (16)
  Link 77 (12)
  
  
  *********************************
  Most Frequent Nonconverging Nodes
  *********************************
  Node 5166 (56.43%)
  Node 30 (31.78%)
  Node 18 (27.42%)
  Node 34 (21.63%)
  Node 36 (20.71%)
  
  
  *************************
  Routing Time Step Summary
  *************************
  Minimum Time Step           :     3.27 sec
  Average Time Step           :     4.29 sec
  Maximum Time Step           :    29.55 sec
  % of Time in Steady State   :     0.00
  Average Iterations per Step :     6.38
  % of Steps Not Converging   :    56.43
  Time Step Frequencies       :
     30.000 - 13.228 sec      :     0.32 %
     13.228 -  5.833 sec      :     8.52 %
      5.833 -  2.572 sec      :    91.17 %
      2.572 -  1.134 sec      :     0.00 %
      1.134 -  0.500 sec      :     0.00 %
  
  
  ******************
  Node Depth Summary
  ******************
  
  ---------------------------------------------------------------------------------
                                 Average  Maximum  Maximum  Time of Max    Reported
                                   Depth    Depth      HGL   Occurrence   Max Depth
  Node                 Type         Feet     Feet     Feet  days hr:min        Feet
  ---------------------------------------------------------------------------------
  10                   JUNCTION     0.07     0.09   411.98     0  08:00        0.09
  10050                JUNCTION     0.07     0.09   310.50     0  08:00        0.09
  10051                JUNCTION     0.03     0.04   298.02     0  07:12        0.04
  10052                JUNCTION     0.07     0.10   308.30     0  08:00        0.10
  10053                JUNCTION     0.06     0.09   303.91     0  07:42        0.09
  10115                JUNCTION     0.06     0.08   311.95     0  07:46        0.08
  10116                JUNCTION     0.05     0.07   313.96     0  07:44        0.07
  10117                JUNCTION     0.12     0.18   309.96     0  08:00        0.18
  10118                JUNCTION     0.10     0.14   311.38     0  08:00        0.14
  10119                JUNCTION     0.06     0.09   314.10     0  08:00        0.09
  10120                JUNCTION     0.06     0.08   315.09     0  08:00        0.08
  10121                JUNCTION     0.03     0.05   311.79     0  07:05        0.05
  10122                JUNCTION     0.10     0.14   313.53     0  08:00        0.14
  10123                JUNCTION     0.08     0.12   314.96     0  08:00        0.12
  10124                JUNCTION     0.07     0.10   315.89     0  08:00        0.10
  10125                JUNCTION     0.04     0.06   318.63     0  07:46        0.06
  10126                JUNCTION     0.04     0.05   322.98     0  07:59        0.05
  10127                JUNCTION     0.08     0.11   324.22     0  08:00        0.11
  10128                JUNCTION     0.07     0.10   326.14     0  08:00        0.10
  12                   JUNCTION     0.05     0.07   411.65     0  08:00        0.07
  14                   JUNCTION     0.08     0.11   413.26     0  07:48        0.11
  16                   JUNCTION    14.78    15.96   358.96     0  05:02       15.89
  18                   JUNCTION   132.97   362.36   655.36     0  08:48      281.53
  24                   JUNCTION    16.75    17.95   358.95     0  05:03       17.91
  26                   JUNCTION     0.00     0.00   388.00     0  08:26        0.00
  28                   JUNCTION     1.50    41.81   393.81     0  08:26        4.38
  30                   JUNCTION    32.66    97.39   377.39     0  08:26       76.37
  32                   JUNCTION     0.05     0.36   356.36     0  09:12        0.33
  34                   JUNCTION    34.33    58.34   366.34     0  06:43       52.29
  36                   JUNCTION    26.56    51.60   367.60     0  08:48       44.76
  40                   JUNCTION    22.69    47.88   367.88     0  08:48       40.94
  42                   JUNCTION    26.12    39.34   345.34     0  07:18       35.75
  44                   JUNCTION     0.18     0.24   324.24     0  07:52        0.24
  5167                 JUNCTION     0.21     0.28   255.13     0  07:52        0.28
  7008                 JUNCTION     0.03     0.04   391.43     0  07:48        0.04
  7009                 JUNCTION     0.13     0.18   398.62     0  08:00        0.18
  7010                 JUNCTION     0.07     0.10   413.96     0  07:49        0.10
  7011                 JUNCTION     0.05     0.06   429.89     0  08:00        0.06
  7012                 JUNCTION     0.06     0.09   425.98     0  07:49        0.09
  7013                 JUNCTION     0.11     0.16   366.91     0  08:00        0.16
  7021                 JUNCTION     0.06     0.08   315.02     0  08:00        0.08
  7022                 JUNCTION     0.04     0.06   320.79     0  07:42        0.06
  7098                 JUNCTION     2.45     2.60   384.11     0  07:21        2.59
  7208                 JUNCTION     0.15     0.21   296.67     0  08:00        0.21
  7209                 JUNCTION     0.22     0.32   291.62     0  08:00        0.32
  7210                 JUNCTION     0.11     0.15   299.07     0  08:00        0.15
  9080                 JUNCTION     0.13     0.25   289.15     0  07:18        0.23
  9082                 JUNCTION     0.16     0.22   293.37     0  08:00        0.22
  9083                 JUNCTION     0.22     0.31   294.23     0  08:00        0.31
  9084                 JUNCTION     0.17     0.24   295.57     0  08:00        0.24
  9087                 JUNCTION     0.07     0.10   306.70     0  08:00        0.10
  9089                 JUNCTION     0.07     0.09   307.90     0  07:59        0.09
  9090                 JUNCTION     0.08     0.11   308.04     0  08:00        0.11
  9093                 JUNCTION     0.11     0.16   302.13     0  08:00        0.16
  9094                 JUNCTION     0.11     0.16   303.78     0  08:00        0.16
  9096                 JUNCTION     0.06     0.08   315.57     0  08:00        0.08
  9097                 JUNCTION     0.07     0.10   323.20     0  08:00        0.10
  9098                 JUNCTION     0.05     0.06   314.20     0  07:59        0.06
  9100                 JUNCTION     6.84     7.78   345.68     0  07:47        7.75
  9101                 JUNCTION     0.09     0.12   354.24     0  08:00        0.12
  9102                 JUNCTION     0.03     0.05   376.38     0  07:59        0.05
  9103                 JUNCTION     0.05     0.07   380.32     0  07:49        0.07
  9104                 JUNCTION     0.54     0.70   345.65     0  07:29        0.70
  9105                 JUNCTION     0.03     0.05   354.13     0  07:55        0.05
  9106                 JUNCTION     0.03     0.05   372.41     0  07:25        0.05
  9107                 JUNCTION     0.04     0.06   375.14     0  07:41        0.06
  9108                 JUNCTION     0.06     0.09   410.95     0  08:00        0.09
  9109                 JUNCTION     0.11     0.15   412.73     0  08:00        0.15
  9110                 JUNCTION     0.04     0.05   423.87     0  07:18        0.05
  9111                 JUNCTION     0.18     0.26   368.59     0  08:00        0.26
  9112                 JUNCTION     0.09     0.13   396.75     0  08:00        0.13
  9113                 JUNCTION     0.04     0.06   418.84     0  08:00        0.06
  9114                 JUNCTION     0.07     0.10   419.51     0  08:00        0.10
  9115                 JUNCTION     0.04     0.05   428.47     0  08:00        0.05
  9116                 JUNCTION     5.09     6.49   437.89     0  04:12        6.49
  9117                 JUNCTION     5.14     5.33   384.07     0  01:32        5.33
  9118                 JUNCTION     0.07     0.09   403.31     0  08:00        0.09
  9119                 JUNCTION     0.06     0.08   418.35     0  08:00        0.08
  9120                 JUNCTION     0.05     0.07   423.60     0  08:00        0.07
  9121                 JUNCTION     0.09     0.12   425.21     0  08:00        0.12
  9122                 JUNCTION     0.05     0.07   427.16     0  07:47        0.07
  9123                 JUNCTION     2.80     3.37   345.69     0  07:48        3.34
  5166                 OUTFALL      0.21     0.28   254.91     0  07:52        0.28
  7014                 STORAGE     15.13    16.20   345.56     0  03:27       16.20
  7023                 STORAGE      5.45    10.03   288.80     0  07:18        9.93
  
  
  *******************
  Node Inflow Summary
  *******************
  
  -------------------------------------------------------------------------------------------------
                                  Maximum  Maximum                  Lateral       Total        Flow
                                  Lateral    Total  Time of Max      Inflow      Inflow     Balance
                                   Inflow   Inflow   Occurrence      Volume      Volume       Error
  Node                 Type           GPM      GPM  days hr:min    10^6 gal    10^6 gal     Percent
  -------------------------------------------------------------------------------------------------
  10                   JUNCTION      7.20    43.40     0  08:00     0.00248      0.0149       0.262
  10050                JUNCTION     10.40    26.60     0  08:00     0.00359     0.00914       0.364
  10051                JUNCTION      5.40     5.40     0  07:00     0.00186     0.00186       0.137
  10052                JUNCTION      8.40    64.40     0  08:00      0.0029       0.022       0.104
  10053                JUNCTION      7.20     7.20     0  07:00     0.00248     0.00248       0.478
  10115                JUNCTION      9.60    22.40     0  07:44     0.00331     0.00771       0.256
  10116                JUNCTION     12.80    12.80     0  07:00     0.00442     0.00442       0.415
  10117                JUNCTION     19.20    53.00     0  08:00     0.00662      0.0182       0.651
  10118                JUNCTION     11.20    33.80     0  07:59     0.00386      0.0116       0.650
  10119                JUNCTION      9.60    19.40     0  07:57     0.00331     0.00667       0.519
  10120                JUNCTION      9.80     9.80     0  07:00     0.00338     0.00338       0.550
  10121                JUNCTION      3.20     3.20     0  07:00      0.0011      0.0011       0.381
  10122                JUNCTION     17.60    56.00     0  08:00     0.00607      0.0192       0.472
  10123                JUNCTION      9.60    24.00     0  08:00     0.00331     0.00825       0.572
  10124                JUNCTION     14.40    14.40     0  07:00     0.00497     0.00497       0.611
  10125                JUNCTION      4.80    14.40     0  07:41     0.00166     0.00496       0.253
  10126                JUNCTION      9.60     9.60     0  07:00     0.00331     0.00331       0.340
  10127                JUNCTION      4.80    22.40     0  08:00     0.00166     0.00768       0.425
  10128                JUNCTION     17.60    17.60     0  07:00     0.00607     0.00607       0.849
  12                   JUNCTION      5.40    28.87     0  08:00     0.00186     0.00993       0.254
  14                   JUNCTION      5.00    23.00     0  07:20     0.00172     0.00792       0.326
  16                   JUNCTION      0.00   226.95     0  00:00           0     0.00186      25.402
  18                   JUNCTION      0.00   350.00     0  06:43           0       0.116       0.572
  24                   JUNCTION      0.00   171.44     0  00:03           0     0.00148    4929.195
  26                   JUNCTION      0.00     4.19     0  08:26           0    2.28e-07       0.228 gal
  28                   JUNCTION      0.00    86.97     0  08:21           0     0.00302   25197.663
  30                   JUNCTION      0.00    87.21     0  07:03           0     0.00658     117.171
  32                   JUNCTION      0.00   108.94     0  08:48           0      0.0114      -0.561
  34                   JUNCTION      0.00   241.27     0  09:12           0      0.0181      10.935
  36                   JUNCTION      0.00   233.23     0  09:12           0      0.0192       3.919
  40                   JUNCTION      0.00   350.17     0  08:48           0       0.121       2.806
  42                   JUNCTION      0.00   275.53     0  08:48           0       0.104       3.468
  44                   JUNCTION      0.00   276.04     0  08:48           0      0.0997       1.703
  5167                 JUNCTION      0.00   262.54     0  07:52           0      0.0975       0.022
  7008                 JUNCTION      9.80     9.80     0  07:00     0.00338     0.00338       0.207
  7009                 JUNCTION      8.80    52.40     0  08:00     0.00304      0.0179       0.503
  7010                 JUNCTION      3.60    18.00     0  07:18     0.00124      0.0062       0.159
  7011                 JUNCTION      7.20     7.27     0  07:00     0.00248     0.00252       0.670
  7012                 JUNCTION      3.60    12.60     0  07:42     0.00124     0.00433       0.329
  7013                 JUNCTION      1.80   124.33     0  08:00    0.000621      0.0423       0.254
  7021                 JUNCTION     16.20    16.20     0  07:00     0.00559     0.00559       0.682
  7022                 JUNCTION     12.60    12.60     0  07:00     0.00435     0.00435       0.321
  7098                 JUNCTION      3.60    63.20     0  08:00     0.00124      0.0217       2.829
  7208                 JUNCTION      9.00    53.60     0  08:00      0.0031      0.0184       0.711
  7209                 JUNCTION      3.60   336.40     0  08:00     0.00124       0.115       0.235
  7210                 JUNCTION      5.40    98.60     0  08:00     0.00186      0.0337       0.188
  9080                 JUNCTION      0.00   336.40     0  08:00           0       0.114       0.013
  9082                 JUNCTION      1.80   169.80     0  08:00    0.000621      0.0577       0.046
  9083                 JUNCTION      5.40   168.00     0  08:00     0.00186      0.0572       0.178
  9084                 JUNCTION      9.00    99.60     0  08:00      0.0031       0.034       0.377
  9087                 JUNCTION     12.60    39.20     0  08:00     0.00435      0.0135       0.336
  9089                 JUNCTION     14.60    37.00     0  07:46     0.00504      0.0127       0.412
  9090                 JUNCTION     10.00    63.00     0  08:00     0.00345      0.0215       0.265
  9093                 JUNCTION     12.40    69.80     0  08:00     0.00428      0.0238       0.313
  9094                 JUNCTION      6.40    57.40     0  08:00     0.00221      0.0196       0.308
  9096                 JUNCTION      5.40    43.80     0  08:00     0.00186       0.015       0.126
  9097                 JUNCTION     16.00    38.40     0  08:00     0.00552      0.0132       0.417
  9098                 JUNCTION     10.80    23.40     0  07:38     0.00373     0.00806       0.286
  9100                 JUNCTION      0.00   144.10     0  07:30           0      0.0483       1.326
  9101                 JUNCTION      0.00   124.33     0  08:00           0      0.0422       0.061
  9102                 JUNCTION      1.80    17.80     0  07:42    0.000621     0.00612       0.047
  9103                 JUNCTION     16.00    16.00     0  07:00     0.00552     0.00552       0.405
  9104                 JUNCTION      0.00    29.84     0  03:19           0     0.00629       3.844
  9105                 JUNCTION      0.00    17.80     0  07:42           0     0.00612       0.058
  9106                 JUNCTION      6.40    17.80     0  07:25     0.00221     0.00613       0.138
  9107                 JUNCTION      1.60    11.40     0  07:24    0.000552     0.00393       0.131
  9108                 JUNCTION      5.20    43.60     0  08:00     0.00179      0.0149       0.182
  9109                 JUNCTION     15.40    38.40     0  07:35     0.00531      0.0132       0.682
  9110                 JUNCTION     14.40    14.40     0  07:00     0.00497     0.00497       0.165
  9111                 JUNCTION      9.00   104.73     0  08:00      0.0031      0.0358       0.534
  9112                 JUNCTION     14.40    95.67     0  08:00     0.00497      0.0327       0.237
  9113                 JUNCTION      5.40    23.47     0  08:00     0.00186     0.00807       0.058
  9114                 JUNCTION      3.60    18.07     0  08:00     0.00124     0.00622       0.175
  9115                 JUNCTION      7.20    14.47     0  08:00     0.00248     0.00499       0.190
  9116                 JUNCTION      9.20     9.20     0  07:00     0.00317     0.00317      22.436
  9117                 JUNCTION     10.80    74.99     0  07:18     0.00373      0.0248       4.683
  9118                 JUNCTION     16.20    59.60     0  08:00     0.00559      0.0204       0.200
  9119                 JUNCTION      7.20    36.20     0  08:00     0.00248      0.0124       0.079
  9120                 JUNCTION      3.60    29.00     0  08:00     0.00124     0.00992       0.071
  9121                 JUNCTION     12.80    25.40     0  07:57     0.00442     0.00874       0.663
  9122                 JUNCTION      9.00     9.00     0  07:00      0.0031      0.0031       0.388
  9123                 JUNCTION      0.00    26.85     0  03:19           0     0.00641       2.544
  5166                 OUTFALL       0.00   262.54     0  07:52           0      0.0975       0.000
  7014                 STORAGE       0.00   142.77     0  07:48           0      0.0483       3.620
  7023                 STORAGE       0.00   336.62     0  07:31           0       0.116      -0.404
  
  
  **********************
  Node Surcharge Summary
  **********************
  
  Surcharging occurs when water rises above the top of the highest conduit.
  ---------------------------------------------------------------------
                                               Max. Height   Min. Depth
                                   Hours       Above Crown    Below Rim
  Node                 Type      Surcharged           Feet         Feet
  ---------------------------------------------------------------------
  16                   JUNCTION       11.59         15.463        0.000
  18                   JUNCTION       11.93        362.027        0.000
  24                   JUNCTION       11.71         17.454        0.000
  28                   JUNCTION        3.57         41.309        0.000
  30                   JUNCTION        4.21         96.887        0.000
  34                   JUNCTION       11.27         57.835        0.000
  36                   JUNCTION       11.21         51.104        0.000
  40                   JUNCTION       10.20         47.383        0.000
  42                   JUNCTION       10.52         38.836        0.000
  7098                 JUNCTION       10.50          1.777        4.286
  9100                 JUNCTION        9.95          6.911        7.423
  9116                 JUNCTION        7.86          5.823        0.000
  9117                 JUNCTION       11.03          4.503        0.000
  9123                 JUNCTION        9.03          2.359        6.985
  
  
  *********************
  Node Flooding Summary
  *********************
  
  Flooding refers to all water that overflows a node, whether it ponds or not.
  --------------------------------------------------------------------------
                                                             Total   Maximum
                                 Maximum   Time of Max       Flood    Ponded
                        Hours       Rate    Occurrence      Volume     Depth
  Node                 Flooded       GPM   days hr:min    10^6 gal      Feet
  --------------------------------------------------------------------------
  9116                    7.80      9.13      0  07:03       0.003     0.000
  9117                   10.46     74.24      0  07:18       0.024     0.000
  7014                    8.54    142.66      0  07:48       0.041     0.000
  
  
  **********************
  Storage Volume Summary
  **********************
  
  ------------------------------------------------------------------------------------------------
                         Average    Avg   Evap  Exfil     Maximum    Max    Time of Max    Maximum
                          Volume   Pcnt   Pcnt   Pcnt      Volume   Pcnt     Occurrence    Outflow
  Storage Unit          1000 ftł   Full   Loss   Loss    1000 ftł   Full    days hr:min        GPM
  ------------------------------------------------------------------------------------------------
  7014                     0.428   93.4    0.0    0.0       0.458  100.0       0  03:27     226.95
  7023                     0.154   35.6    0.0    0.0       0.284   65.6       0  07:18     350.00
  
  
  ***********************
  Outfall Loading Summary
  ***********************
  
  -----------------------------------------------------------
                         Flow       Avg       Max       Total
                         Freq      Flow      Flow      Volume
  Outfall Node           Pcnt       GPM       GPM    10^6 gal
  -----------------------------------------------------------
  5166                  94.41    170.52    262.54       0.097
  -----------------------------------------------------------
  System                94.41    170.52    262.54       0.097
  
  
  ********************
  Link Flow Summary
  ********************
  
  -----------------------------------------------------------------------------
                                 Maximum  Time of Max   Maximum    Max/    Max/
                                  |Flow|   Occurrence   |Veloc|    Full    Full
  Link                 Type          GPM  days hr:min    ft/sec    Flow   Depth
  -----------------------------------------------------------------------------
  0                    CONDUIT    262.54     0  07:52      3.20    0.18    0.28
  1                    CONDUIT      9.00     0  07:42      1.17    0.02    0.10
  10                   CONDUIT      7.27     0  08:00      1.03    0.02    0.09
  11                   CONDUIT     14.47     0  08:00      2.62    0.01    0.08
  12                   CONDUIT     18.07     0  08:00      1.37    0.04    0.14
  13                   CONDUIT     28.87     0  08:00      3.45    0.02    0.10
  14                   CONDUIT     95.67     0  08:00      4.60    0.08    0.19
  15                   CONDUIT    104.73     0  08:00      2.04    0.30    0.36
  16                   CONDUIT     16.00     0  07:42      1.78    0.02    0.11
  17                   CONDUIT     17.80     0  07:42      3.67    0.01    0.07
  18                   CONDUIT    124.33     0  08:00      4.29    0.13    0.24
  19                   CONDUIT    124.33     0  08:00      4.36    0.07    0.59
  2                    CONDUIT     12.60     0  07:57      1.17    0.03    0.12
  20                   CONDUIT     14.40     0  07:18      2.77    0.01    0.07
  21                   CONDUIT     18.00     0  07:20      1.17    0.05    0.16
  22                   CONDUIT     38.40     0  08:00      1.58    0.11    0.21
  23                   CONDUIT     43.60     0  08:00      3.70    0.04    0.13
  24                   CONDUIT     52.40     0  08:00      1.70    0.15    0.25
  25                   CONDUIT      9.80     0  07:24      2.71    0.01    0.06
  26                   CONDUIT     11.40     0  07:25      1.74    0.02    0.09
  27                   CONDUIT     17.80     0  07:42      3.56    0.01    0.07
  28                   CONDUIT     17.80     0  07:25      2.40    0.01    0.45
  29                   CONDUIT     25.39     0  03:19      1.36    0.03    1.00
  3                    CONDUIT     25.40     0  08:00      1.41    0.07    0.17
  30                   CONDUIT     26.85     0  03:19      2.22    0.02    1.00
  31                   CONDUIT    142.77     0  07:48      0.91    0.10    1.00
  32                   CONDUIT     16.20     0  08:00      1.61    0.03    0.12
  33                   CONDUIT     26.60     0  08:00      2.04    0.04    0.14
  34                   CONDUIT     99.60     0  08:00      1.88    0.27    0.37
  35                   CONDUIT    168.00     0  08:00      2.47    0.43    0.45
  36                   CONDUIT    336.62     0  07:31      3.22    0.15    0.68
  37                   CONDUIT     37.00     0  07:51      2.87    0.04    0.14
  38                   CONDUIT     63.00     0  08:00      3.71    0.06    0.17
  39                   CONDUIT      7.20     0  07:42      0.59    0.03    0.14
  4                    CONDUIT     29.00     0  08:00      3.45    0.02    0.10
  40                   CONDUIT     57.40     0  08:00      2.04    0.12    0.24
  41                   CONDUIT     38.40     0  08:00      2.56    0.05    0.15
  42                   CONDUIT     43.80     0  08:00      3.30    0.03    0.14
  43                   CONDUIT     12.60     0  07:38      2.05    0.01    0.08
  44                   CONDUIT     12.80     0  07:44      1.40    0.02    0.11
  45                   CONDUIT     22.40     0  07:46      2.15    0.03    0.12
  46                   CONDUIT      9.80     0  07:57      1.08    0.03    0.11
  47                   CONDUIT      5.40     0  07:12      1.47    0.01    0.06
  48                   CONDUIT     39.20     0  08:00      2.82    0.04    0.14
  49                   CONDUIT     53.60     0  08:00      1.55    0.18    0.27
  5                    CONDUIT     43.40     0  08:00      3.31    0.04    0.14
  50                   CONDUIT    169.80     0  08:00      2.83    0.24    0.41
  51                   CONDUIT     64.40     0  08:00      1.90    0.05    0.32
  52                   CONDUIT    336.40     0  08:00      4.53    0.47    0.48
  53                   CONDUIT     98.60     0  08:00      2.39    0.12    0.32
  54                   CONDUIT     23.40     0  07:33      2.31    0.02    0.13
  55                   CONDUIT     69.80     0  08:00      2.46    0.12    0.24
  56                   CONDUIT      3.24     0  07:08      0.82    0.01    0.07
  57                   CONDUIT     19.40     0  07:59      1.58    0.04    0.13
  58                   CONDUIT     33.80     0  08:00      1.51    0.09    0.20
  59                   CONDUIT     53.00     0  08:00      1.74    0.14    0.25
  6                    CONDUIT     59.60     0  08:00      2.96    0.04    0.57
  60                   CONDUIT     14.40     0  08:00      1.14    0.04    0.13
  61                   CONDUIT     24.00     0  08:00      1.42    0.06    0.16
  62                   CONDUIT     56.00     0  08:00      2.27    0.10    0.21
  63                   CONDUIT     17.60     0  08:00      1.31    0.05    0.14
  64                   CONDUIT     22.40     0  08:00      1.39    0.06    0.16
  65                   CONDUIT      9.60     0  07:41      1.69    0.01    0.08
  66                   CONDUIT     14.40     0  07:41      2.11    0.02    0.09
  67                   CONDUIT     36.20     0  08:00      2.93    0.03    0.13
  68                   CONDUIT     23.47     0  08:00      2.99    0.02    0.10
  69                   CONDUIT     23.00     0  07:35      1.42    0.06    0.16
  7                    CONDUIT     64.19     0  07:18      2.23    0.07    1.00
  73                   CONDUIT      0.00     0  08:26      0.00    0.00    0.50
  75                   CONDUIT      4.19     0  08:26      0.10    0.01    0.50
  77                   CONDUIT     86.97     0  08:21      1.29    0.14    1.00
  79                   CONDUIT     87.21     0  07:03      5.62    0.13    0.86
  8                    CONDUIT      0.25     0  00:00      0.10    2.72    0.50
  81                   CONDUIT    241.27     0  09:12      3.02    0.41    0.86
  83                   CONDUIT    233.23     0  09:12      4.48    0.51    1.00
  85                   CONDUIT    206.36     0  09:12      4.29    0.41    1.00
  9                    CONDUIT      0.14     0  00:00      0.09    2.28    0.50
  91                   CONDUIT    350.17     0  08:48      8.94    2.77    1.00
  93                   CONDUIT    171.44     0  00:03      3.61    0.81    1.00
  95                   CONDUIT    276.04     0  08:48      4.19    0.81    0.74
  97                   CONDUIT    262.54     0  07:52      6.40    0.43    0.47
  99                   CONDUIT    275.53     0  08:48      3.13    1.15    1.00
  MANLAKES1            PUMP       175.00     0  00:00              1.00
  MANLAKES2            PUMP       175.00     0  06:43              1.00
  TRISPRINGS1          PUMP       113.48     0  00:00              0.57
  TRISPRINGS2          PUMP       113.48     0  00:00              0.57
  
  
  ***************************
  Flow Classification Summary
  ***************************
  
  -------------------------------------------------------------------------------------
                      Adjusted    ---------- Fraction of Time in Flow Class ---------- 
                       /Actual         Up    Down  Sub   Sup   Up    Down  Norm  Inlet 
  Conduit               Length    Dry  Dry   Dry   Crit  Crit  Crit  Crit  Ltd   Ctrl  
  -------------------------------------------------------------------------------------
  0                       1.00   0.14  0.00  0.00  0.00  0.86  0.00  0.00  0.18  0.00
  1                       1.00   0.00  0.00  0.00  0.00  0.00  0.00  1.00  0.00  0.00
  10                      1.00   0.00  0.00  0.00  0.00  0.00  0.00  1.00  0.00  0.00
  11                      1.00   0.00  0.00  0.00  0.00  0.00  0.00  1.00  0.00  0.00
  12                      1.00   0.00  0.00  0.00  0.00  0.00  0.00  1.00  0.00  0.00
  13                      1.00   0.00  0.00  0.00  0.00  0.00  0.00  1.00  0.00  0.00
  14                      1.00   0.00  0.00  0.00  0.00  0.00  0.00  1.00  0.00  0.00
  15                      1.00   0.00  0.00  0.00  0.00  0.00  0.00  1.00  0.00  0.00
  16                      1.00   0.00  0.00  0.00  0.00  0.00  0.00  1.00  0.00  0.00
  17                      1.00   0.00  0.00  0.00  0.00  0.00  0.00  1.00  0.00  0.00
  18                      1.00   0.00  0.00  0.00  0.00  0.00  0.00  1.00  0.00  0.00
  19                      1.00   0.00  0.00  0.00  0.85  0.00  0.00  0.15  0.85  0.00
  2                       1.00   0.00  0.00  0.00  0.00  0.00  0.00  1.00  0.00  0.00
  20                      1.00   0.00  0.00  0.00  0.00  0.00  0.00  1.00  0.00  0.00
  21                      1.00   0.00  0.00  0.00  1.00  0.00  0.00  0.00  0.99  0.00
  22                      1.00   0.00  0.00  0.00  0.00  0.00  0.00  1.00  0.00  0.00
  23                      1.00   0.00  0.00  0.00  0.00  0.00  0.00  1.00  0.00  0.00
  24                      1.00   0.00  0.00  0.00  0.00  0.00  0.00  1.00  0.00  0.00
  25                      1.00   0.00  0.00  0.00  0.00  0.00  0.00  1.00  0.00  0.00
  26                      1.00   0.00  0.00  0.00  0.00  0.00  0.00  1.00  0.00  0.00
  27                      1.00   0.00  0.00  0.00  0.00  0.00  0.00  1.00  0.00  0.00
  28                      1.00   0.00  0.00  0.00  0.72  0.00  0.00  0.27  0.73  0.00
  29                      1.00   0.00  0.00  0.00  0.77  0.00  0.00  0.23  0.04  0.00
  3                       1.00   0.00  0.00  0.00  0.00  0.00  0.00  1.00  0.00  0.00
  30                      1.00   0.00  0.00  0.00  0.85  0.00  0.00  0.14  0.08  0.00
  31                      1.00   0.00  0.00  0.00  1.00  0.00  0.00  0.00  0.14  0.00
  32                      1.00   0.00  0.00  0.00  0.00  0.00  0.00  1.00  0.00  0.00
  33                      1.00   0.00  0.00  0.00  0.00  0.00  0.00  1.00  0.00  0.00
  34                      1.00   0.00  0.00  0.00  0.58  0.00  0.00  0.42  0.35  0.00
  35                      1.00   0.00  0.00  0.00  0.00  0.00  0.00  1.00  0.00  0.00
  36                      1.00   0.00  0.00  0.00  1.00  0.00  0.00  0.00  0.96  0.00
  37                      1.00   0.00  0.00  0.00  0.00  0.00  0.00  1.00  0.00  0.00
  38                      1.00   0.00  0.00  0.00  0.00  0.00  0.00  1.00  0.00  0.00
  39                      1.00   0.00  0.00  0.00  0.90  0.00  0.00  0.10  0.42  0.00
  4                       1.00   0.00  0.00  0.00  0.00  0.00  0.00  1.00  0.00  0.00
  40                      1.00   0.00  0.00  0.00  0.00  0.00  0.00  1.00  0.00  0.00
  41                      1.00   0.00  0.00  0.00  0.00  0.00  0.00  1.00  0.00  0.00
  42                      1.00   0.00  0.00  0.00  0.00  0.56  0.00  0.44  0.56  0.00
  43                      1.00   0.00  0.00  0.00  0.00  0.00  0.00  1.00  0.00  0.00
  44                      1.00   0.00  0.00  0.00  0.00  0.00  0.00  1.00  0.00  0.00
  45                      1.00   0.00  0.00  0.00  0.00  0.00  0.00  1.00  0.00  0.00
  46                      1.00   0.00  0.00  0.00  0.00  0.00  0.00  1.00  0.00  0.00
  47                      1.00   0.00  0.00  0.00  0.00  0.00  0.00  1.00  0.00  0.00
  48                      1.00   0.00  0.00  0.00  0.00  0.00  0.00  1.00  0.00  0.00
  49                      1.00   0.00  0.00  0.00  0.00  0.00  0.00  1.00  0.00  0.00
  5                       1.00   0.00  0.00  0.00  0.00  0.00  0.00  1.00  0.00  0.00
  50                      1.00   0.00  0.00  0.00  0.01  0.99  0.00  0.00  1.00  0.00
  51                      1.00   0.00  0.00  0.00  0.99  0.01  0.00  0.00  1.00  0.00
  52                      1.00   0.00  0.00  0.00  0.00  0.00  0.00  1.00  0.00  0.00
  53                      1.00   0.00  0.00  0.00  0.00  0.98  0.00  0.02  0.98  0.00
  54                      1.00   0.00  0.00  0.00  0.00  0.58  0.00  0.42  0.58  0.00
  55                      1.00   0.00  0.00  0.00  0.00  0.00  0.00  1.00  0.00  0.00
  56                      1.00   0.00  0.00  0.00  0.08  0.00  0.00  0.92  0.07  0.00
  57                      1.00   0.00  0.00  0.00  0.00  0.00  0.00  1.00  0.00  0.00
  58                      1.00   0.00  0.00  0.00  0.00  0.00  0.00  1.00  0.00  0.00
  59                      1.00   0.00  0.00  0.00  0.00  0.00  0.00  1.00  0.00  0.00
  6                       1.00   0.00  0.00  0.00  0.91  0.00  0.00  0.08  0.92  0.00
  60                      1.00   0.00  0.00  0.00  0.00  0.00  0.00  1.00  0.00  0.00
  61                      1.00   0.00  0.00  0.00  0.00  0.00  0.00  1.00  0.00  0.00
  62                      1.00   0.00  0.00  0.00  0.00  0.00  0.00  1.00  0.00  0.00
  63                      1.00   0.00  0.00  0.00  0.00  0.00  0.00  1.00  0.00  0.00
  64                      1.00   0.00  0.00  0.00  0.00  0.00  0.00  1.00  0.00  0.00
  65                      1.00   0.00  0.00  0.00  0.00  0.00  0.00  1.00  0.00  0.00
  66                      1.00   0.00  0.00  0.00  0.00  0.00  0.00  1.00  0.00  0.00
  67                      1.00   0.00  0.00  0.00  0.00  1.00  0.00  0.00  1.00  0.00
  68                      1.00   0.00  0.00  0.00  0.00  1.00  0.00  0.00  1.00  0.00
  69                      1.00   0.00  0.00  0.00  0.00  0.00  0.00  1.00  0.00  0.00
  7                       1.00   0.00  0.00  0.00  0.97  0.01  0.00  0.02  0.06  0.00
  73                      1.00   0.00  1.00  0.00  0.00  0.00  0.00  0.00  0.30  0.00
  75                      1.00   0.65  0.35  0.00  0.00  0.00  0.00  0.00  0.30  0.00
  77                      1.00   0.56  0.09  0.00  0.35  0.00  0.00  0.00  0.00  0.00
  79                      1.00   0.56  0.00  0.00  0.41  0.03  0.00  0.00  0.07  0.00
  8                       1.00   0.00  0.00  0.00  0.00  0.00  0.00  1.00  0.00  0.00
  81                      1.00   0.01  0.55  0.00  0.44  0.00  0.00  0.00  0.24  0.00
  83                      1.00   0.01  0.00  0.00  0.97  0.02  0.00  0.00  0.04  0.00
  85                      1.00   0.01  0.00  0.00  0.94  0.06  0.00  0.00  0.05  0.00
  9                       1.00   0.00  0.00  0.00  0.00  0.00  0.00  1.00  0.00  0.00
  91                      1.00   0.00  0.01  0.00  0.93  0.06  0.00  0.00  0.00  0.00
  93                      1.00   0.00  0.00  0.00  0.99  0.01  0.00  0.00  0.02  0.00
  95                      1.00   0.01  0.12  0.00  0.62  0.25  0.00  0.00  0.02  0.00
  97                      1.00   0.12  0.00  0.00  0.00  0.00  0.00  0.88  0.00  0.00
  99                      1.00   0.01  0.00  0.00  0.95  0.05  0.00  0.00  0.07  0.00
  
  
  *************************
  Conduit Surcharge Summary
  *************************
  
  ----------------------------------------------------------------------------
                                                           Hours        Hours 
                         --------- Hours Full --------   Above Full   Capacity
  Conduit                Both Ends  Upstream  Dnstream   Normal Flow   Limited
  ----------------------------------------------------------------------------
  19                          0.01      0.01      9.95      0.01         0.01
  29                          1.07      1.07      9.03      0.01         0.01
  30                          9.15      9.15      9.97      0.01         0.01
  31                         10.04     10.04     11.98      0.01         0.01
  36                          0.01      0.01     11.99      0.01         0.01
  6                           0.01      0.01     10.50      0.01         0.01
  7                          10.62     10.62     11.03      0.01         0.01
  73                          0.01      0.01      3.56      0.01         0.01
  75                          0.01      0.01      3.56      0.01         0.01
  77                          3.57      3.57      4.20      0.01         0.01
  79                          0.01      0.01      4.21      0.01         0.01
  8                           0.01     11.19      0.01      0.01         0.01
  81                          0.01      0.01      5.28      0.01         0.01
  83                         11.21     11.21     11.27      0.01         0.01
  85                         10.19     10.19     11.21      0.01         0.01
  9                           0.01      7.86      0.01      7.82         0.01
  91                         10.36     10.37     11.90      8.80         0.02
  93                         11.59     11.59     11.71      0.01         0.01
  95                          0.01      0.01     10.51      0.01         0.01
  99                         10.20     10.20     10.52      2.25         2.37
  
  
  ***************
  Pumping Summary
  ***************
  
  ---------------------------------------------------------------------------------------------------------
                                                  Min       Avg       Max     Total     Power    % Time Off
                        Percent   Number of      Flow      Flow      Flow    Volume     Usage    Pump Curve
  Pump                 Utilized   Start-Ups       GPM       GPM       GPM  10^6 gal     Kw-hr    Low   High
  ---------------------------------------------------------------------------------------------------------
  MANLAKES1               73.93          16      0.00    175.00    175.00     0.093     46.32    0.0    0.0
  MANLAKES2               17.85           4      0.00    175.00    175.00     0.022     20.30    0.0    0.0
  TRISPRINGS1              1.01          40      0.00     29.32    113.48     0.000      0.01    0.0    0.0
  TRISPRINGS2              9.59         154      0.00     15.82    113.48     0.001      0.05    0.0    0.0
  

  Analysis begun on:  Tue Jun 23 20:38:29 2026
  Analysis ended on:  Tue Jun 23 20:38:30 2026
  Total elapsed time: 00:00:01