
  EPA STORM WATER MANAGEMENT MODEL - VERSION 5.2 (Build 5.2.4)
  ------------------------------------------------------------

  WARNING 04: minimum elevation drop used for Conduit 5058.1
  WARNING 04: minimum elevation drop used for Conduit 5822.1
  WARNING 08: elevation drop exceeds length for Conduit 5942.1
  WARNING 04: minimum elevation drop used for Conduit 10099.1
  WARNING 04: minimum elevation drop used for Conduit 10115.1
  WARNING 04: minimum elevation drop used for Conduit 10297.1
  WARNING 04: minimum elevation drop used for Conduit 20128.1
  WARNING 04: minimum elevation drop used for Conduit 30015.2
  WARNING 04: minimum elevation drop used for Conduit 3144619.1
  WARNING 04: minimum elevation drop used for Conduit 3175112.2
  WARNING 04: minimum elevation drop used for Conduit 3179030.1
  WARNING 04: minimum elevation drop used for Conduit 3218832.1
  WARNING 04: minimum elevation drop used for Conduit 3219183.1
  WARNING 04: minimum elevation drop used for Conduit 3219184.1
  WARNING 04: minimum elevation drop used for Conduit 3219197.1
  WARNING 04: minimum elevation drop used for Conduit 3234050.1
  WARNING 04: minimum elevation drop used for Conduit 3236568.1
  WARNING 04: minimum elevation drop used for Conduit 5788-1.1
  WARNING 04: minimum elevation drop used for Conduit 5788-2.1
  WARNING 04: minimum elevation drop used for Conduit 5788-3.1
  WARNING 04: minimum elevation drop used for Conduit 6029751.1
  WARNING 04: minimum elevation drop used for Conduit 6073349.1
  WARNING 04: minimum elevation drop used for Conduit 6073352.1
  WARNING 04: minimum elevation drop used for Conduit 6073424.1
  WARNING 04: minimum elevation drop used for Conduit 6073426.1
  WARNING 04: minimum elevation drop used for Conduit 6076543.1
  WARNING 04: minimum elevation drop used for Conduit 7204174.1
  WARNING 04: minimum elevation drop used for Conduit 7204174.2
  WARNING 04: minimum elevation drop used for Conduit C003.2
  WARNING 04: minimum elevation drop used for Conduit C066.1
  WARNING 04: minimum elevation drop used for Conduit CP03.1
  WARNING 04: minimum elevation drop used for Conduit IH-10_JUNCTION_E116.2
  WARNING 04: minimum elevation drop used for Conduit IH-10_MH_C1.2
  WARNING 04: minimum elevation drop used for Conduit IH-10_MH_C105A.2
  WARNING 04: minimum elevation drop used for Conduit IH-10_MH_C107.1
  WARNING 04: minimum elevation drop used for Conduit IH-10_MH_C121.2
  WARNING 04: minimum elevation drop used for Conduit IH-10_MH_C7.4
  WARNING 04: minimum elevation drop used for Conduit MX2.2
  WARNING 04: minimum elevation drop used for Conduit W14001_sta19701.1
  WARNING 04: minimum elevation drop used for Conduit W14001_sta19701.2
  WARNING 04: minimum elevation drop used for Conduit W5400101-OUT.2
  WARNING 02: maximum depth increased for Node 10008_2D
  WARNING 02: maximum depth increased for Node 10009_2D
  WARNING 02: maximum depth increased for Node 10010_2D
  WARNING 02: maximum depth increased for Node 10032_2D
  WARNING 02: maximum depth increased for Node 10055_2D
  WARNING 02: maximum depth increased for Node 10056_2D
  WARNING 02: maximum depth increased for Node 10059_2D
  WARNING 02: maximum depth increased for Node -1027
  WARNING 02: maximum depth increased for Node 1018
  WARNING 02: maximum depth increased for Node 20103_2D
  WARNING 02: maximum depth increased for Node 20104_2D
  WARNING 02: maximum depth increased for Node 20105_2D
  WARNING 02: maximum depth increased for Node 20106_2D
  WARNING 02: maximum depth increased for Node 20107_2D
  WARNING 02: maximum depth increased for Node 20108_2D
  WARNING 02: maximum depth increased for Node 20109_2D
  WARNING 02: maximum depth increased for Node 20110_2D
  WARNING 02: maximum depth increased for Node 20111_2D
  WARNING 02: maximum depth increased for Node 20112_2D
  WARNING 02: maximum depth increased for Node 20113_2D
  WARNING 02: maximum depth increased for Node 20114_2D
  WARNING 02: maximum depth increased for Node 20115_2D
  WARNING 02: maximum depth increased for Node 20119_2D
  WARNING 02: maximum depth increased for Node 20120_2D
  WARNING 02: maximum depth increased for Node 20121_2D
  WARNING 02: maximum depth increased for Node 20122_2D
  WARNING 02: maximum depth increased for Node 20123_2D
  WARNING 02: maximum depth increased for Node 20124_2D
  WARNING 02: maximum depth increased for Node 20125_2D
  WARNING 02: maximum depth increased for Node 20126_2D
  WARNING 02: maximum depth increased for Node 20127_2D
  WARNING 02: maximum depth increased for Node 20128_2D
  WARNING 02: maximum depth increased for Node 5000
  WARNING 02: maximum depth increased for Node 5001
  WARNING 02: maximum depth increased for Node 5005
  WARNING 02: maximum depth increased for Node 5007
  WARNING 02: maximum depth increased for Node 5010
  WARNING 02: maximum depth increased for Node 5013
  WARNING 02: maximum depth increased for Node 5022
  WARNING 02: maximum depth increased for Node 5023
  WARNING 02: maximum depth increased for Node 5025
  WARNING 02: maximum depth increased for Node 5026
  WARNING 02: maximum depth increased for Node 5027
  WARNING 02: maximum depth increased for Node 5028
  WARNING 02: maximum depth increased for Node 5029
  WARNING 02: maximum depth increased for Node 5030
  WARNING 02: maximum depth increased for Node 5031
  WARNING 02: maximum depth increased for Node 5032
  WARNING 02: maximum depth increased for Node 5033
  WARNING 02: maximum depth increased for Node 5034
  WARNING 02: maximum depth increased for Node 5057
  WARNING 02: maximum depth increased for Node 5058
  WARNING 02: maximum depth increased for Node 5059
  WARNING 02: maximum depth increased for Node 5225
  WARNING 02: maximum depth increased for Node 5360
  WARNING 02: maximum depth increased for Node 5361
  WARNING 02: maximum depth increased for Node 5654
  WARNING 02: maximum depth increased for Node 5659
  WARNING 02: maximum depth increased for Node 5665
  WARNING 02: maximum depth increased for Node 5669
  WARNING 02: maximum depth increased for Node 5671
  WARNING 02: maximum depth increased for Node 5744
  WARNING 02: maximum depth increased for Node 5750
  WARNING 02: maximum depth increased for Node 5763
  WARNING 02: maximum depth increased for Node 5765
  WARNING 02: maximum depth increased for Node 5770
  WARNING 02: maximum depth increased for Node 5771
  WARNING 02: maximum depth increased for Node 5774
  WARNING 02: maximum depth increased for Node 5776
  WARNING 02: maximum depth increased for Node 5779
  WARNING 02: maximum depth increased for Node 5804
  WARNING 02: maximum depth increased for Node 5809
  WARNING 02: maximum depth increased for Node 5816
  WARNING 02: maximum depth increased for Node 5817
  WARNING 02: maximum depth increased for Node 5819
  WARNING 02: maximum depth increased for Node 5822
  WARNING 02: maximum depth increased for Node 5825
  WARNING 02: maximum depth increased for Node 5826
  WARNING 02: maximum depth increased for Node 5827
  WARNING 02: maximum depth increased for Node 5830
  WARNING 02: maximum depth increased for Node 5837
  WARNING 02: maximum depth increased for Node 5839
  WARNING 02: maximum depth increased for Node 5849
  WARNING 02: maximum depth increased for Node 5850
  WARNING 02: maximum depth increased for Node 5854
  WARNING 02: maximum depth increased for Node 5860
  WARNING 02: maximum depth increased for Node 5861
  WARNING 02: maximum depth increased for Node 5868
  WARNING 02: maximum depth increased for Node 5870
  WARNING 02: maximum depth increased for Node 5874
  WARNING 02: maximum depth increased for Node 5876
  WARNING 02: maximum depth increased for Node 5879
  WARNING 02: maximum depth increased for Node 5881
  WARNING 02: maximum depth increased for Node 5887
  WARNING 02: maximum depth increased for Node 5888
  WARNING 02: maximum depth increased for Node 5890
  WARNING 02: maximum depth increased for Node 5891
  WARNING 02: maximum depth increased for Node 5895
  WARNING 02: maximum depth increased for Node 5896
  WARNING 02: maximum depth increased for Node 5897
  WARNING 02: maximum depth increased for Node 5902
  WARNING 02: maximum depth increased for Node 5905
  WARNING 02: maximum depth increased for Node 5916
  WARNING 02: maximum depth increased for Node 5921
  WARNING 02: maximum depth increased for Node 5923
  WARNING 02: maximum depth increased for Node 5926
  WARNING 02: maximum depth increased for Node 5928
  WARNING 02: maximum depth increased for Node 5929
  WARNING 02: maximum depth increased for Node 5940
  WARNING 02: maximum depth increased for Node 5942
  WARNING 02: maximum depth increased for Node 5952
  WARNING 02: maximum depth increased for Node 5960
  WARNING 02: maximum depth increased for Node 5963
  WARNING 02: maximum depth increased for Node 5967
  WARNING 02: maximum depth increased for Node 5968
  WARNING 02: maximum depth increased for Node 5974
  WARNING 02: maximum depth increased for Node 5979
  WARNING 02: maximum depth increased for Node 5982
  WARNING 02: maximum depth increased for Node 5985
  WARNING 02: maximum depth increased for Node 5988
  WARNING 02: maximum depth increased for Node 5990
  WARNING 02: maximum depth increased for Node 5993
  WARNING 02: maximum depth increased for Node 5997
  WARNING 02: maximum depth increased for Node 5999
  WARNING 02: maximum depth increased for Node 6003
  WARNING 02: maximum depth increased for Node 6006
  WARNING 02: maximum depth increased for Node 6013
  WARNING 02: maximum depth increased for Node 6016
  WARNING 02: maximum depth increased for Node 6018
  WARNING 02: maximum depth increased for Node 6021
  WARNING 02: maximum depth increased for Node 6023
  WARNING 02: maximum depth increased for Node 6028
  WARNING 02: maximum depth increased for Node 6031
  WARNING 02: maximum depth increased for Node 6037
  WARNING 02: maximum depth increased for Node 6040
  WARNING 02: maximum depth increased for Node 6046
  WARNING 02: maximum depth increased for Node 6049
  WARNING 02: maximum depth increased for Node 10002
  WARNING 02: maximum depth increased for Node 10003
  WARNING 02: maximum depth increased for Node 10008
  WARNING 02: maximum depth increased for Node 10009
  WARNING 02: maximum depth increased for Node 10010
  WARNING 02: maximum depth increased for Node 10011
  WARNING 02: maximum depth increased for Node 10032
  WARNING 02: maximum depth increased for Node 10033
  WARNING 02: maximum depth increased for Node 10034
  WARNING 02: maximum depth increased for Node 10035
  WARNING 02: maximum depth increased for Node 10036
  WARNING 02: maximum depth increased for Node 10037
  WARNING 02: maximum depth increased for Node 10044
  WARNING 02: maximum depth increased for Node 10046
  WARNING 02: maximum depth increased for Node 10048
  WARNING 02: maximum depth increased for Node 10049
  WARNING 02: maximum depth increased for Node 10051
  WARNING 02: maximum depth increased for Node 10052
  WARNING 02: maximum depth increased for Node 10053
  WARNING 02: maximum depth increased for Node 10054
  WARNING 02: maximum depth increased for Node 10055
  WARNING 02: maximum depth increased for Node 10056
  WARNING 02: maximum depth increased for Node 10057
  WARNING 02: maximum depth increased for Node 10058
  WARNING 02: maximum depth increased for Node 10059
  WARNING 02: maximum depth increased for Node 10095
  WARNING 02: maximum depth increased for Node 10096
  WARNING 02: maximum depth increased for Node 10097
  WARNING 02: maximum depth increased for Node 10098
  WARNING 02: maximum depth increased for Node 10099
  WARNING 02: maximum depth increased for Node 10100
  WARNING 02: maximum depth increased for Node 10101
  WARNING 02: maximum depth increased for Node 10102
  WARNING 02: maximum depth increased for Node 10103
  WARNING 02: maximum depth increased for Node 10106
  WARNING 02: maximum depth increased for Node 10107
  WARNING 02: maximum depth increased for Node 10108
  WARNING 02: maximum depth increased for Node 10109
  WARNING 02: maximum depth increased for Node 10110
  WARNING 02: maximum depth increased for Node 10111
  WARNING 02: maximum depth increased for Node 10112
  WARNING 02: maximum depth increased for Node 10113
  WARNING 02: maximum depth increased for Node 10114
  WARNING 02: maximum depth increased for Node 10115
  WARNING 02: maximum depth increased for Node 10118
  WARNING 02: maximum depth increased for Node 10119
  WARNING 02: maximum depth increased for Node 10120
  WARNING 02: maximum depth increased for Node 10121
  WARNING 02: maximum depth increased for Node 10123
  WARNING 02: maximum depth increased for Node 10124
  WARNING 02: maximum depth increased for Node 10128
  WARNING 02: maximum depth increased for Node 10135
  WARNING 02: maximum depth increased for Node 10136
  WARNING 02: maximum depth increased for Node 10138
  WARNING 02: maximum depth increased for Node 10245
  WARNING 02: maximum depth increased for Node 10247
  WARNING 02: maximum depth increased for Node 10251
  WARNING 02: maximum depth increased for Node 10260
  WARNING 02: maximum depth increased for Node 10261
  WARNING 02: maximum depth increased for Node 10262
  WARNING 02: maximum depth increased for Node 10263
  WARNING 02: maximum depth increased for Node 10264
  WARNING 02: maximum depth increased for Node 10265
  WARNING 02: maximum depth increased for Node 10266
  WARNING 02: maximum depth increased for Node 10285
  WARNING 02: maximum depth increased for Node 10289
  WARNING 02: maximum depth increased for Node 10290
  WARNING 02: maximum depth increased for Node 10297
  WARNING 02: maximum depth increased for Node 10302
  WARNING 02: maximum depth increased for Node 10304
  WARNING 02: maximum depth increased for Node 10306
  WARNING 02: maximum depth increased for Node 10308
  WARNING 02: maximum depth increased for Node 10309
  WARNING 02: maximum depth increased for Node 10311
  WARNING 02: maximum depth increased for Node 10313
  WARNING 02: maximum depth increased for Node 20053
  WARNING 02: maximum depth increased for Node 20102
  WARNING 02: maximum depth increased for Node 20103
  WARNING 02: maximum depth increased for Node 20104
  WARNING 02: maximum depth increased for Node 20105
  WARNING 02: maximum depth increased for Node 20106
  WARNING 02: maximum depth increased for Node 20107
  WARNING 02: maximum depth increased for Node 20108
  WARNING 02: maximum depth increased for Node 20109
  WARNING 02: maximum depth increased for Node 20110
  WARNING 02: maximum depth increased for Node 20111
  WARNING 02: maximum depth increased for Node 20112
  WARNING 02: maximum depth increased for Node 20113
  WARNING 02: maximum depth increased for Node 20114
  WARNING 02: maximum depth increased for Node 20115
  WARNING 02: maximum depth increased for Node 20116
  WARNING 02: maximum depth increased for Node 20117
  WARNING 02: maximum depth increased for Node 20118
  WARNING 02: maximum depth increased for Node 20119
  WARNING 02: maximum depth increased for Node 20120
  WARNING 02: maximum depth increased for Node 20121
  WARNING 02: maximum depth increased for Node 20122
  WARNING 02: maximum depth increased for Node 20123
  WARNING 02: maximum depth increased for Node 20124
  WARNING 02: maximum depth increased for Node 20125
  WARNING 02: maximum depth increased for Node 20126
  WARNING 02: maximum depth increased for Node 20127
  WARNING 02: maximum depth increased for Node 20128
  WARNING 02: maximum depth increased for Node 20129
  WARNING 02: maximum depth increased for Node 20129_2D
  WARNING 02: maximum depth increased for Node 20131
  WARNING 02: maximum depth increased for Node 20132
  WARNING 02: maximum depth increased for Node 20133
  WARNING 02: maximum depth increased for Node 20134
  WARNING 02: maximum depth increased for Node 20135
  WARNING 02: maximum depth increased for Node 20136
  WARNING 02: maximum depth increased for Node 20137
  WARNING 02: maximum depth increased for Node 20138
  WARNING 02: maximum depth increased for Node 20139
  WARNING 02: maximum depth increased for Node 20140
  WARNING 02: maximum depth increased for Node 20141
  WARNING 02: maximum depth increased for Node 20142
  WARNING 02: maximum depth increased for Node 20142-1
  WARNING 02: maximum depth increased for Node 30000
  WARNING 02: maximum depth increased for Node 30001
  WARNING 02: maximum depth increased for Node 30002
  WARNING 02: maximum depth increased for Node 30003
  WARNING 02: maximum depth increased for Node 30004
  WARNING 02: maximum depth increased for Node 30005
  WARNING 02: maximum depth increased for Node 30006
  WARNING 02: maximum depth increased for Node 30007
  WARNING 02: maximum depth increased for Node 30008
  WARNING 02: maximum depth increased for Node 30009
  WARNING 02: maximum depth increased for Node 30010
  WARNING 02: maximum depth increased for Node 30011
  WARNING 02: maximum depth increased for Node 30012
  WARNING 02: maximum depth increased for Node 30013
  WARNING 02: maximum depth increased for Node 30014
  WARNING 02: maximum depth increased for Node 30015
  WARNING 02: maximum depth increased for Node 30016
  WARNING 02: maximum depth increased for Node 30017
  WARNING 02: maximum depth increased for Node 30018
  WARNING 02: maximum depth increased for Node 30019
  WARNING 02: maximum depth increased for Node 30020
  WARNING 02: maximum depth increased for Node 30021
  WARNING 02: maximum depth increased for Node 30022
  WARNING 02: maximum depth increased for Node 30023
  WARNING 02: maximum depth increased for Node 30027
  WARNING 02: maximum depth increased for Node 30029
  WARNING 02: maximum depth increased for Node 30030
  WARNING 02: maximum depth increased for Node 30032
  WARNING 02: maximum depth increased for Node 30033
  WARNING 02: maximum depth increased for Node 30034
  WARNING 02: maximum depth increased for Node 30035
  WARNING 02: maximum depth increased for Node 30036
  WARNING 02: maximum depth increased for Node 30037
  WARNING 02: maximum depth increased for Node 3143189
  WARNING 02: maximum depth increased for Node 3143195
  WARNING 02: maximum depth increased for Node 3143196
  WARNING 02: maximum depth increased for Node 3143197
  WARNING 02: maximum depth increased for Node 3143201
  WARNING 02: maximum depth increased for Node 3143205
  WARNING 02: maximum depth increased for Node 3143206
  WARNING 02: maximum depth increased for Node 3143209
  WARNING 02: maximum depth increased for Node 3143214
  WARNING 02: maximum depth increased for Node 3143215
  WARNING 02: maximum depth increased for Node 3143216
  WARNING 02: maximum depth increased for Node 3143228
  WARNING 02: maximum depth increased for Node 3143498
  WARNING 02: maximum depth increased for Node 3143499
  WARNING 02: maximum depth increased for Node 3143507
  WARNING 02: maximum depth increased for Node 3144582
  WARNING 02: maximum depth increased for Node 3144583
  WARNING 02: maximum depth increased for Node 3144584
  WARNING 02: maximum depth increased for Node 3144586
  WARNING 02: maximum depth increased for Node 3144587
  WARNING 02: maximum depth increased for Node 3144591
  WARNING 02: maximum depth increased for Node 3144598
  WARNING 02: maximum depth increased for Node 3144599
  WARNING 02: maximum depth increased for Node 3144600
  WARNING 02: maximum depth increased for Node 3144602
  WARNING 02: maximum depth increased for Node 3144603
  WARNING 02: maximum depth increased for Node 3144605
  WARNING 02: maximum depth increased for Node 3144606
  WARNING 02: maximum depth increased for Node 3144607
  WARNING 02: maximum depth increased for Node 3144608
  WARNING 02: maximum depth increased for Node 3144609
  WARNING 02: maximum depth increased for Node 3144610
  WARNING 02: maximum depth increased for Node 3144612
  WARNING 02: maximum depth increased for Node 3144613
  WARNING 02: maximum depth increased for Node 3144614
  WARNING 02: maximum depth increased for Node 3144615
  WARNING 02: maximum depth increased for Node 3144616
  WARNING 02: maximum depth increased for Node 3144617
  WARNING 02: maximum depth increased for Node 3144618
  WARNING 02: maximum depth increased for Node 3144619
  WARNING 02: maximum depth increased for Node 3144623
  WARNING 02: maximum depth increased for Node 3144624
  WARNING 02: maximum depth increased for Node 3144627
  WARNING 02: maximum depth increased for Node 3144628
  WARNING 02: maximum depth increased for Node 3144629
  WARNING 02: maximum depth increased for Node 3144631
  WARNING 02: maximum depth increased for Node 3144632
  WARNING 02: maximum depth increased for Node 3144633
  WARNING 02: maximum depth increased for Node 3144637
  WARNING 02: maximum depth increased for Node 3144638
  WARNING 02: maximum depth increased for Node 3144640
  WARNING 02: maximum depth increased for Node 3144641
  WARNING 02: maximum depth increased for Node 3144642
  WARNING 02: maximum depth increased for Node 3144643
  WARNING 02: maximum depth increased for Node 3144646
  WARNING 02: maximum depth increased for Node 3144647
  WARNING 02: maximum depth increased for Node 3144648
  WARNING 02: maximum depth increased for Node 3144911
  WARNING 02: maximum depth increased for Node 3144912
  WARNING 02: maximum depth increased for Node 3144913
  WARNING 02: maximum depth increased for Node 3144914
  WARNING 02: maximum depth increased for Node 3144915
  WARNING 02: maximum depth increased for Node 3144916
  WARNING 02: maximum depth increased for Node 3144917
  WARNING 02: maximum depth increased for Node 3144928
  WARNING 02: maximum depth increased for Node 3144930
  WARNING 02: maximum depth increased for Node 3144931
  WARNING 02: maximum depth increased for Node 3144932
  WARNING 02: maximum depth increased for Node 3144935
  WARNING 02: maximum depth increased for Node 3144936
  WARNING 02: maximum depth increased for Node 3144937
  WARNING 02: maximum depth increased for Node 3144938
  WARNING 02: maximum depth increased for Node 3144944
  WARNING 02: maximum depth increased for Node 3144951
  WARNING 02: maximum depth increased for Node 3144952
  WARNING 02: maximum depth increased for Node 3144955
  WARNING 02: maximum depth increased for Node 3144956
  WARNING 02: maximum depth increased for Node 3144962
  WARNING 02: maximum depth increased for Node 3144967
  WARNING 02: maximum depth increased for Node 3146601
  WARNING 02: maximum depth increased for Node 3146604
  WARNING 02: maximum depth increased for Node 3146605
  WARNING 02: maximum depth increased for Node 3146608
  WARNING 02: maximum depth increased for Node 3146737
  WARNING 02: maximum depth increased for Node 3146738
  WARNING 02: maximum depth increased for Node 3146742
  WARNING 02: maximum depth increased for Node 3146748
  WARNING 02: maximum depth increased for Node 3146749
  WARNING 02: maximum depth increased for Node 3146752
  WARNING 02: maximum depth increased for Node 3146756
  WARNING 02: maximum depth increased for Node 3146767
  WARNING 02: maximum depth increased for Node 3146769
  WARNING 02: maximum depth increased for Node 3175098
  WARNING 02: maximum depth increased for Node 3175100
  WARNING 02: maximum depth increased for Node 3175102
  WARNING 02: maximum depth increased for Node 3175104
  WARNING 02: maximum depth increased for Node 3175107
  WARNING 02: maximum depth increased for Node 3175109
  WARNING 02: maximum depth increased for Node 3175111
  WARNING 02: maximum depth increased for Node 3175112
  WARNING 02: maximum depth increased for Node 3175113
  WARNING 02: maximum depth increased for Node 3175114
  WARNING 02: maximum depth increased for Node 3175115
  WARNING 02: maximum depth increased for Node 3175121
  WARNING 02: maximum depth increased for Node 3175122
  WARNING 02: maximum depth increased for Node 3175261
  WARNING 02: maximum depth increased for Node 3175272
  WARNING 02: maximum depth increased for Node 3175279
  WARNING 02: maximum depth increased for Node 3176092
  WARNING 02: maximum depth increased for Node 3176094
  WARNING 02: maximum depth increased for Node 3176096
  WARNING 02: maximum depth increased for Node 3176098
  WARNING 02: maximum depth increased for Node 3176100
  WARNING 02: maximum depth increased for Node 3176102
  WARNING 02: maximum depth increased for Node 3176104
  WARNING 02: maximum depth increased for Node 3176105
  WARNING 02: maximum depth increased for Node 3176107
  WARNING 02: maximum depth increased for Node 3176108
  WARNING 02: maximum depth increased for Node 3176109
  WARNING 02: maximum depth increased for Node 3176110
  WARNING 02: maximum depth increased for Node 3176112
  WARNING 02: maximum depth increased for Node 3176113
  WARNING 02: maximum depth increased for Node 3176115
  WARNING 02: maximum depth increased for Node 3176245
  WARNING 02: maximum depth increased for Node 3176246
  WARNING 02: maximum depth increased for Node 3176247
  WARNING 02: maximum depth increased for Node 3176248
  WARNING 02: maximum depth increased for Node 3176249
  WARNING 02: maximum depth increased for Node 3176251
  WARNING 02: maximum depth increased for Node 3176254
  WARNING 02: maximum depth increased for Node 3176255
  WARNING 02: maximum depth increased for Node 3176274
  WARNING 02: maximum depth increased for Node 3176275
  WARNING 02: maximum depth increased for Node 3177634
  WARNING 02: maximum depth increased for Node 3177638
  WARNING 02: maximum depth increased for Node 3177642
  WARNING 02: maximum depth increased for Node 3177643
  WARNING 02: maximum depth increased for Node 3177646
  WARNING 02: maximum depth increased for Node 3177653
  WARNING 02: maximum depth increased for Node 3177657
  WARNING 02: maximum depth increased for Node 3177664
  WARNING 02: maximum depth increased for Node 3177674
  WARNING 02: maximum depth increased for Node 3177675
  WARNING 02: maximum depth increased for Node 3177677
  WARNING 02: maximum depth increased for Node 3177678
  WARNING 02: maximum depth increased for Node 3177683
  WARNING 02: maximum depth increased for Node 3177966
  WARNING 02: maximum depth increased for Node 3177985
  WARNING 02: maximum depth increased for Node 3177990
  WARNING 02: maximum depth increased for Node 3178003
  WARNING 02: maximum depth increased for Node 3178015
  WARNING 02: maximum depth increased for Node 3178751
  WARNING 02: maximum depth increased for Node 3178752
  WARNING 02: maximum depth increased for Node 3178753
  WARNING 02: maximum depth increased for Node 3178754
  WARNING 02: maximum depth increased for Node 3178755
  WARNING 02: maximum depth increased for Node 3178756
  WARNING 02: maximum depth increased for Node 3178758
  WARNING 02: maximum depth increased for Node 3178759
  WARNING 02: maximum depth increased for Node 3178760
  WARNING 02: maximum depth increased for Node 3178761
  WARNING 02: maximum depth increased for Node 3178762
  WARNING 02: maximum depth increased for Node 3178763
  WARNING 02: maximum depth increased for Node 3178765
  WARNING 02: maximum depth increased for Node 3178767
  WARNING 02: maximum depth increased for Node 3178768
  WARNING 02: maximum depth increased for Node 3178769
  WARNING 02: maximum depth increased for Node 3178770
  WARNING 02: maximum depth increased for Node 3178771
  WARNING 02: maximum depth increased for Node 3178772
  WARNING 02: maximum depth increased for Node 3178773
  WARNING 02: maximum depth increased for Node 3178775
  WARNING 02: maximum depth increased for Node 3178778
  WARNING 02: maximum depth increased for Node 3178779
  WARNING 02: maximum depth increased for Node 3178781
  WARNING 02: maximum depth increased for Node 3178783
  WARNING 02: maximum depth increased for Node 3178785
  WARNING 02: maximum depth increased for Node 3178787
  WARNING 02: maximum depth increased for Node 3178788
  WARNING 02: maximum depth increased for Node 3178790
  WARNING 02: maximum depth increased for Node 3178791
  WARNING 02: maximum depth increased for Node 3178792
  WARNING 02: maximum depth increased for Node 3178793
  WARNING 02: maximum depth increased for Node 3178794
  WARNING 02: maximum depth increased for Node 3178797
  WARNING 02: maximum depth increased for Node 3178987
  WARNING 02: maximum depth increased for Node 3178988
  WARNING 02: maximum depth increased for Node 3178989
  WARNING 02: maximum depth increased for Node 3178992
  WARNING 02: maximum depth increased for Node 3179002
  WARNING 02: maximum depth increased for Node 3179010
  WARNING 02: maximum depth increased for Node 3179011
  WARNING 02: maximum depth increased for Node 3179012
  WARNING 02: maximum depth increased for Node 3179013
  WARNING 02: maximum depth increased for Node 3179018
  WARNING 02: maximum depth increased for Node 3179019
  WARNING 02: maximum depth increased for Node 3179020
  WARNING 02: maximum depth increased for Node 3179021
  WARNING 02: maximum depth increased for Node 3179024
  WARNING 02: maximum depth increased for Node 3179025
  WARNING 02: maximum depth increased for Node 3179029
  WARNING 02: maximum depth increased for Node 3179030
  WARNING 02: maximum depth increased for Node 3218806
  WARNING 02: maximum depth increased for Node 3218808
  WARNING 02: maximum depth increased for Node 3218814
  WARNING 02: maximum depth increased for Node 3218819
  WARNING 02: maximum depth increased for Node 3218824
  WARNING 02: maximum depth increased for Node 3218829
  WARNING 02: maximum depth increased for Node 3218832
  WARNING 02: maximum depth increased for Node 3218866
  WARNING 02: maximum depth increased for Node 3218873
  WARNING 02: maximum depth increased for Node 3219151
  WARNING 02: maximum depth increased for Node 3219152
  WARNING 02: maximum depth increased for Node 3219153
  WARNING 02: maximum depth increased for Node 3219183
  WARNING 02: maximum depth increased for Node 3219184
  WARNING 02: maximum depth increased for Node 3219186
  WARNING 02: maximum depth increased for Node 3219196
  WARNING 02: maximum depth increased for Node 3219197
  WARNING 02: maximum depth increased for Node 3219198
  WARNING 02: maximum depth increased for Node 3219200
  WARNING 02: maximum depth increased for Node 3219201
  WARNING 02: maximum depth increased for Node 3221259
  WARNING 02: maximum depth increased for Node 3221268
  WARNING 02: maximum depth increased for Node 3221271
  WARNING 02: maximum depth increased for Node 3221280
  WARNING 02: maximum depth increased for Node 3234001
  WARNING 02: maximum depth increased for Node 3234041
  WARNING 02: maximum depth increased for Node 3234043
  WARNING 02: maximum depth increased for Node 3234049
  WARNING 02: maximum depth increased for Node 3234050
  WARNING 02: maximum depth increased for Node 3234051
  WARNING 02: maximum depth increased for Node 3234052
  WARNING 02: maximum depth increased for Node 3234054
  WARNING 02: maximum depth increased for Node 3234057
  WARNING 02: maximum depth increased for Node 3234058
  WARNING 02: maximum depth increased for Node 3234059
  WARNING 02: maximum depth increased for Node 3234307
  WARNING 02: maximum depth increased for Node 3234312
  WARNING 02: maximum depth increased for Node 3234315
  WARNING 02: maximum depth increased for Node 3236559
  WARNING 02: maximum depth increased for Node 3236568
  WARNING 02: maximum depth increased for Node 3236569
  WARNING 02: maximum depth increased for Node 3236576
  WARNING 02: maximum depth increased for Node 3236582
  WARNING 02: maximum depth increased for Node 3236584
  WARNING 02: maximum depth increased for Node 3236585
  WARNING 02: maximum depth increased for Node 3236588
  WARNING 02: maximum depth increased for Node 3236589
  WARNING 02: maximum depth increased for Node 3236590
  WARNING 02: maximum depth increased for Node 3236593
  WARNING 02: maximum depth increased for Node 3236596
  WARNING 02: maximum depth increased for Node 3236615
  WARNING 02: maximum depth increased for Node 3236631
  WARNING 02: maximum depth increased for Node 3236632
  WARNING 02: maximum depth increased for Node 3236633
  WARNING 02: maximum depth increased for Node 3236634
  WARNING 02: maximum depth increased for Node 3236636
  WARNING 02: maximum depth increased for Node 4161810
  WARNING 02: maximum depth increased for Node 4161811
  WARNING 02: maximum depth increased for Node 4161812
  WARNING 02: maximum depth increased for Node 4165577
  WARNING 02: maximum depth increased for Node 4165579
  WARNING 02: maximum depth increased for Node 4165581
  WARNING 02: maximum depth increased for Node 4165583
  WARNING 02: maximum depth increased for Node 4165583_2D
  WARNING 02: maximum depth increased for Node 4165585
  WARNING 02: maximum depth increased for Node 4165604
  WARNING 02: maximum depth increased for Node 4165604_2D
  WARNING 02: maximum depth increased for Node 4165605
  WARNING 02: maximum depth increased for Node 4165605_2D
  WARNING 02: maximum depth increased for Node 4165607
  WARNING 02: maximum depth increased for Node 4165607_2D
  WARNING 02: maximum depth increased for Node 4165610
  WARNING 02: maximum depth increased for Node 4165610_2D
  WARNING 02: maximum depth increased for Node 4165614
  WARNING 02: maximum depth increased for Node 4165616
  WARNING 02: maximum depth increased for Node 5000_2D
  WARNING 02: maximum depth increased for Node 5708649
  WARNING 02: maximum depth increased for Node 5708650
  WARNING 02: maximum depth increased for Node 5708651
  WARNING 02: maximum depth increased for Node 5708685
  WARNING 02: maximum depth increased for Node 5708686
  WARNING 02: maximum depth increased for Node 5708689
  WARNING 02: maximum depth increased for Node 5788-1
  WARNING 02: maximum depth increased for Node 5788-2
  WARNING 02: maximum depth increased for Node 5788-3
  WARNING 02: maximum depth increased for Node 5906134
  WARNING 02: maximum depth increased for Node 5906135
  WARNING 02: maximum depth increased for Node 5906136
  WARNING 02: maximum depth increased for Node 5906137
  WARNING 02: maximum depth increased for Node 5906138
  WARNING 02: maximum depth increased for Node 5906139
  WARNING 02: maximum depth increased for Node 5906140
  WARNING 02: maximum depth increased for Node 5906141
  WARNING 02: maximum depth increased for Node 5906142
  WARNING 02: maximum depth increased for Node 5906143
  WARNING 02: maximum depth increased for Node 5906172
  WARNING 02: maximum depth increased for Node 5906175
  WARNING 02: maximum depth increased for Node 5906176
  WARNING 02: maximum depth increased for Node 5906177
  WARNING 02: maximum depth increased for Node 5906183
  WARNING 02: maximum depth increased for Node 5906184
  WARNING 02: maximum depth increased for Node 5906227
  WARNING 02: maximum depth increased for Node 5906228
  WARNING 02: maximum depth increased for Node 5906232
  WARNING 02: maximum depth increased for Node 5906233
  WARNING 02: maximum depth increased for Node 5906234
  WARNING 02: maximum depth increased for Node 5906250
  WARNING 02: maximum depth increased for Node 5906258
  WARNING 02: maximum depth increased for Node 5906312
  WARNING 02: maximum depth increased for Node 5906313
  WARNING 02: maximum depth increased for Node 5906314
  WARNING 02: maximum depth increased for Node 5906316
  WARNING 02: maximum depth increased for Node 5906317
  WARNING 02: maximum depth increased for Node 5906318
  WARNING 02: maximum depth increased for Node 5906319
  WARNING 02: maximum depth increased for Node 5906321
  WARNING 02: maximum depth increased for Node 5906330
  WARNING 02: maximum depth increased for Node 5906331
  WARNING 02: maximum depth increased for Node 5906359
  WARNING 02: maximum depth increased for Node 5906361
  WARNING 02: maximum depth increased for Node 5906388
  WARNING 02: maximum depth increased for Node 5906390
  WARNING 02: maximum depth increased for Node 5906410
  WARNING 02: maximum depth increased for Node 5906476
  WARNING 02: maximum depth increased for Node 5906479
  WARNING 02: maximum depth increased for Node 5906481
  WARNING 02: maximum depth increased for Node 6029677
  WARNING 02: maximum depth increased for Node 6029685
  WARNING 02: maximum depth increased for Node 6029687
  WARNING 02: maximum depth increased for Node 6029695
  WARNING 02: maximum depth increased for Node 6029697
  WARNING 02: maximum depth increased for Node 6029708
  WARNING 02: maximum depth increased for Node 6029724
  WARNING 02: maximum depth increased for Node 6029730
  WARNING 02: maximum depth increased for Node 6029738
  WARNING 02: maximum depth increased for Node 6029740
  WARNING 02: maximum depth increased for Node 6029741
  WARNING 02: maximum depth increased for Node 6029751
  WARNING 02: maximum depth increased for Node 6029753
  WARNING 02: maximum depth increased for Node 6029755
  WARNING 02: maximum depth increased for Node 6029762
  WARNING 02: maximum depth increased for Node 6029770
  WARNING 02: maximum depth increased for Node 6029772
  WARNING 02: maximum depth increased for Node 6029773
  WARNING 02: maximum depth increased for Node 6029774
  WARNING 02: maximum depth increased for Node 6029809
  WARNING 02: maximum depth increased for Node 6029814
  WARNING 02: maximum depth increased for Node 6029820
  WARNING 02: maximum depth increased for Node 6029823
  WARNING 02: maximum depth increased for Node 6052589
  WARNING 02: maximum depth increased for Node 6052590
  WARNING 02: maximum depth increased for Node 6052591
  WARNING 02: maximum depth increased for Node 6052597
  WARNING 02: maximum depth increased for Node 6052599
  WARNING 02: maximum depth increased for Node 6052601
  WARNING 02: maximum depth increased for Node 6052608
  WARNING 02: maximum depth increased for Node 6052609
  WARNING 02: maximum depth increased for Node 6052620
  WARNING 02: maximum depth increased for Node 6052621
  WARNING 02: maximum depth increased for Node 6061092
  WARNING 02: maximum depth increased for Node 6061094
  WARNING 02: maximum depth increased for Node 6061230
  WARNING 02: maximum depth increased for Node 6061276
  WARNING 02: maximum depth increased for Node 6061278
  WARNING 02: maximum depth increased for Node 6061287
  WARNING 02: maximum depth increased for Node 6061295
  WARNING 02: maximum depth increased for Node 6061297
  WARNING 02: maximum depth increased for Node 6061307
  WARNING 02: maximum depth increased for Node 6061308
  WARNING 02: maximum depth increased for Node 6061320
  WARNING 02: maximum depth increased for Node 6061322
  WARNING 02: maximum depth increased for Node 6061332
  WARNING 02: maximum depth increased for Node 6061338
  WARNING 02: maximum depth increased for Node 6061347
  WARNING 02: maximum depth increased for Node 6061355
  WARNING 02: maximum depth increased for Node 6061365
  WARNING 02: maximum depth increased for Node 6061368
  WARNING 02: maximum depth increased for Node 6061377
  WARNING 02: maximum depth increased for Node 6061387
  WARNING 02: maximum depth increased for Node 6061395
  WARNING 02: maximum depth increased for Node 6061397
  WARNING 02: maximum depth increased for Node 6061405
  WARNING 02: maximum depth increased for Node 6061415
  WARNING 02: maximum depth increased for Node 6061423
  WARNING 02: maximum depth increased for Node 6061431
  WARNING 02: maximum depth increased for Node 6061433
  WARNING 02: maximum depth increased for Node 6061441
  WARNING 02: maximum depth increased for Node 6061443
  WARNING 02: maximum depth increased for Node 6061451
  WARNING 02: maximum depth increased for Node 6061459
  WARNING 02: maximum depth increased for Node 6061461
  WARNING 02: maximum depth increased for Node 6061463
  WARNING 02: maximum depth increased for Node 6061466
  WARNING 02: maximum depth increased for Node 6061468
  WARNING 02: maximum depth increased for Node 6061471
  WARNING 02: maximum depth increased for Node 6061479
  WARNING 02: maximum depth increased for Node 6061481
  WARNING 02: maximum depth increased for Node 6061489
  WARNING 02: maximum depth increased for Node 6061497
  WARNING 02: maximum depth increased for Node 6061499
  WARNING 02: maximum depth increased for Node 6062507
  WARNING 02: maximum depth increased for Node 6062515
  WARNING 02: maximum depth increased for Node 6062523
  WARNING 02: maximum depth increased for Node 6062528
  WARNING 02: maximum depth increased for Node 6062536
  WARNING 02: maximum depth increased for Node 6062544
  WARNING 02: maximum depth increased for Node 6062552
  WARNING 02: maximum depth increased for Node 6062554
  WARNING 02: maximum depth increased for Node 6062562
  WARNING 02: maximum depth increased for Node 6062570
  WARNING 02: maximum depth increased for Node 6062572
  WARNING 02: maximum depth increased for Node 6062580
  WARNING 02: maximum depth increased for Node 6062588
  WARNING 02: maximum depth increased for Node 6062598
  WARNING 02: maximum depth increased for Node 6073349
  WARNING 02: maximum depth increased for Node 6073352
  WARNING 02: maximum depth increased for Node 6073420
  WARNING 02: maximum depth increased for Node 6073424
  WARNING 02: maximum depth increased for Node 6073426
  WARNING 02: maximum depth increased for Node 6073433
  WARNING 02: maximum depth increased for Node 6073436
  WARNING 02: maximum depth increased for Node 6073438
  WARNING 02: maximum depth increased for Node 6073447
  WARNING 02: maximum depth increased for Node 6073451
  WARNING 02: maximum depth increased for Node 6073459
  WARNING 02: maximum depth increased for Node 6073463
  WARNING 02: maximum depth increased for Node 6073469
  WARNING 02: maximum depth increased for Node 6073473
  WARNING 02: maximum depth increased for Node 6073491
  WARNING 02: maximum depth increased for Node 6075001
  WARNING 02: maximum depth increased for Node 6075003
  WARNING 02: maximum depth increased for Node 6075006
  WARNING 02: maximum depth increased for Node 6075008
  WARNING 02: maximum depth increased for Node 6075011
  WARNING 02: maximum depth increased for Node 6075013
  WARNING 02: maximum depth increased for Node 6075016
  WARNING 02: maximum depth increased for Node 6075019
  WARNING 02: maximum depth increased for Node 6075021
  WARNING 02: maximum depth increased for Node 6075024
  WARNING 02: maximum depth increased for Node 6075027
  WARNING 02: maximum depth increased for Node 6075033
  WARNING 02: maximum depth increased for Node 6075039
  WARNING 02: maximum depth increased for Node 6075045
  WARNING 02: maximum depth increased for Node 6075065
  WARNING 02: maximum depth increased for Node 6075083
  WARNING 02: maximum depth increased for Node 6075085
  WARNING 02: maximum depth increased for Node 6075095
  WARNING 02: maximum depth increased for Node 6075097
  WARNING 02: maximum depth increased for Node 6075103
  WARNING 02: maximum depth increased for Node 6075107
  WARNING 02: maximum depth increased for Node 6075111
  WARNING 02: maximum depth increased for Node 6075121
  WARNING 02: maximum depth increased for Node 6075123
  WARNING 02: maximum depth increased for Node 6075125
  WARNING 02: maximum depth increased for Node 6075451
  WARNING 02: maximum depth increased for Node 6075459
  WARNING 02: maximum depth increased for Node 6075463
  WARNING 02: maximum depth increased for Node 6075465
  WARNING 02: maximum depth increased for Node 6076543
  WARNING 02: maximum depth increased for Node 6076557
  WARNING 02: maximum depth increased for Node 6076597
  WARNING 02: maximum depth increased for Node 6076632
  WARNING 02: maximum depth increased for Node 6198704
  WARNING 02: maximum depth increased for Node 6198706
  WARNING 02: maximum depth increased for Node 6198708
  WARNING 02: maximum depth increased for Node 6198711
  WARNING 02: maximum depth increased for Node 6198730
  WARNING 02: maximum depth increased for Node 6198761
  WARNING 02: maximum depth increased for Node 6198771
  WARNING 02: maximum depth increased for Node 6198780
  WARNING 02: maximum depth increased for Node 6198784
  WARNING 02: maximum depth increased for Node 6198788
  WARNING 02: maximum depth increased for Node 6198792
  WARNING 02: maximum depth increased for Node 6198793
  WARNING 02: maximum depth increased for Node 6198800
  WARNING 02: maximum depth increased for Node 6198804
  WARNING 02: maximum depth increased for Node 6198806
  WARNING 02: maximum depth increased for Node 6198808
  WARNING 02: maximum depth increased for Node 6198813
  WARNING 02: maximum depth increased for Node 6198813_2D
  WARNING 02: maximum depth increased for Node 6198814
  WARNING 02: maximum depth increased for Node 6198814_2D
  WARNING 02: maximum depth increased for Node 6198824
  WARNING 02: maximum depth increased for Node 6198825
  WARNING 02: maximum depth increased for Node 6198825_2D
  WARNING 02: maximum depth increased for Node 6198826
  WARNING 02: maximum depth increased for Node 6198826_2D
  WARNING 02: maximum depth increased for Node 6198834
  WARNING 02: maximum depth increased for Node 6198836
  WARNING 02: maximum depth increased for Node 6198837
  WARNING 02: maximum depth increased for Node 6198837_2D
  WARNING 02: maximum depth increased for Node 6198838
  WARNING 02: maximum depth increased for Node 6198838_2D
  WARNING 02: maximum depth increased for Node 6198839
  WARNING 02: maximum depth increased for Node 6198839_2D
  WARNING 02: maximum depth increased for Node 6198853
  WARNING 02: maximum depth increased for Node 6198854
  WARNING 02: maximum depth increased for Node 6198854_2D
  WARNING 02: maximum depth increased for Node 6198858
  WARNING 02: maximum depth increased for Node 6198859
  WARNING 02: maximum depth increased for Node 6198859_2D
  WARNING 02: maximum depth increased for Node 6198860
  WARNING 02: maximum depth increased for Node 6198860_2D
  WARNING 02: maximum depth increased for Node 6198869
  WARNING 02: maximum depth increased for Node 6198872
  WARNING 02: maximum depth increased for Node 6198873
  WARNING 02: maximum depth increased for Node 6198873_2D
  WARNING 02: maximum depth increased for Node 6198874
  WARNING 02: maximum depth increased for Node 6198874_2D
  WARNING 02: maximum depth increased for Node 6198884
  WARNING 02: maximum depth increased for Node 6198885
  WARNING 02: maximum depth increased for Node 6198885_2D
  WARNING 02: maximum depth increased for Node 6198886
  WARNING 02: maximum depth increased for Node 6198886_2D
  WARNING 02: maximum depth increased for Node 6198892
  WARNING 02: maximum depth increased for Node 6198894
  WARNING 02: maximum depth increased for Node 7204174
  WARNING 02: maximum depth increased for Node 31467671
  WARNING 02: maximum depth increased for Node 31467672
  WARNING 02: maximum depth increased for Node 31467673
  WARNING 02: maximum depth increased for Node 6198894_2D
  WARNING 02: maximum depth increased for Node A10
  WARNING 02: maximum depth increased for Node A11
  WARNING 02: maximum depth increased for Node A13
  WARNING 02: maximum depth increased for Node A15
  WARNING 02: maximum depth increased for Node A17
  WARNING 02: maximum depth increased for Node A18
  WARNING 02: maximum depth increased for Node A2
  WARNING 02: maximum depth increased for Node A20
  WARNING 02: maximum depth increased for Node A21
  WARNING 02: maximum depth increased for Node A22
  WARNING 02: maximum depth increased for Node A25
  WARNING 02: maximum depth increased for Node A26
  WARNING 02: maximum depth increased for Node A28
  WARNING 02: maximum depth increased for Node A29
  WARNING 02: maximum depth increased for Node A3
  WARNING 02: maximum depth increased for Node A31
  WARNING 02: maximum depth increased for Node A32
  WARNING 02: maximum depth increased for Node A34
  WARNING 02: maximum depth increased for Node A35
  WARNING 02: maximum depth increased for Node A41
  WARNING 02: maximum depth increased for Node A42
  WARNING 02: maximum depth increased for Node A43
  WARNING 02: maximum depth increased for Node A46
  WARNING 02: maximum depth increased for Node A47
  WARNING 02: maximum depth increased for Node A48
  WARNING 02: maximum depth increased for Node A5
  WARNING 02: maximum depth increased for Node A6
  WARNING 02: maximum depth increased for Node A8
  WARNING 02: maximum depth increased for Node A9
  WARNING 02: maximum depth increased for Node AM1
  WARNING 02: maximum depth increased for Node AM12
  WARNING 02: maximum depth increased for Node AM14
  WARNING 02: maximum depth increased for Node AM16
  WARNING 02: maximum depth increased for Node AM19
  WARNING 02: maximum depth increased for Node AM23
  WARNING 02: maximum depth increased for Node AM24
  WARNING 02: maximum depth increased for Node AM27
  WARNING 02: maximum depth increased for Node AM30
  WARNING 02: maximum depth increased for Node AM33
  WARNING 02: maximum depth increased for Node AM36
  WARNING 02: maximum depth increased for Node AM37
  WARNING 02: maximum depth increased for Node AM38
  WARNING 02: maximum depth increased for Node AM39
  WARNING 02: maximum depth increased for Node AM4
  WARNING 02: maximum depth increased for Node AM40
  WARNING 02: maximum depth increased for Node AM44
  WARNING 02: maximum depth increased for Node AM45
  WARNING 02: maximum depth increased for Node AM49
  WARNING 02: maximum depth increased for Node AM50
  WARNING 02: maximum depth increased for Node AM7
  WARNING 02: maximum depth increased for Node B01
  WARNING 02: maximum depth increased for Node B03
  WARNING 02: maximum depth increased for Node B03_2D
  WARNING 02: maximum depth increased for Node B04
  WARNING 02: maximum depth increased for Node B05
  WARNING 02: maximum depth increased for Node B05_2D
  WARNING 02: maximum depth increased for Node B06
  WARNING 02: maximum depth increased for Node B06_2D
  WARNING 02: maximum depth increased for Node B07
  WARNING 02: maximum depth increased for Node B08
  WARNING 02: maximum depth increased for Node B08_2D
  WARNING 02: maximum depth increased for Node B10
  WARNING 02: maximum depth increased for Node B12
  WARNING 02: maximum depth increased for Node B12_2D
  WARNING 02: maximum depth increased for Node B13
  WARNING 02: maximum depth increased for Node B14
  WARNING 02: maximum depth increased for Node B15
  WARNING 02: maximum depth increased for Node B15_2D
  WARNING 02: maximum depth increased for Node B18
  WARNING 02: maximum depth increased for Node B19
  WARNING 02: maximum depth increased for Node B19_2D
  WARNING 02: maximum depth increased for Node B20
  WARNING 02: maximum depth increased for Node B20_2D
  WARNING 02: maximum depth increased for Node B22
  WARNING 02: maximum depth increased for Node B24
  WARNING 02: maximum depth increased for Node B26
  WARNING 02: maximum depth increased for Node B26_2D
  WARNING 02: maximum depth increased for Node B27
  WARNING 02: maximum depth increased for Node B29
  WARNING 02: maximum depth increased for Node B30
  WARNING 02: maximum depth increased for Node B30_2D
  WARNING 02: maximum depth increased for Node B31
  WARNING 02: maximum depth increased for Node B31_2D
  WARNING 02: maximum depth increased for Node B32
  WARNING 02: maximum depth increased for Node B35
  WARNING 02: maximum depth increased for Node B35_2D
  WARNING 02: maximum depth increased for Node B36
  WARNING 02: maximum depth increased for Node B38
  WARNING 02: maximum depth increased for Node B39
  WARNING 02: maximum depth increased for Node B39_2D
  WARNING 02: maximum depth increased for Node B41
  WARNING 02: maximum depth increased for Node B45
  WARNING 02: maximum depth increased for Node B46
  WARNING 02: maximum depth increased for Node B46_2D
  WARNING 02: maximum depth increased for Node B47
  WARNING 02: maximum depth increased for Node B48
  WARNING 02: maximum depth increased for Node B49
  WARNING 02: maximum depth increased for Node B50
  WARNING 02: maximum depth increased for Node B50_2D
  WARNING 02: maximum depth increased for Node BM10
  WARNING 02: maximum depth increased for Node BM13
  WARNING 02: maximum depth increased for Node BM14
  WARNING 02: maximum depth increased for Node BM2
  WARNING 02: maximum depth increased for Node BM20
  WARNING 02: maximum depth increased for Node BM24
  WARNING 02: maximum depth increased for Node BM25
  WARNING 02: maximum depth increased for Node BM29
  WARNING 02: maximum depth increased for Node BM30
  WARNING 02: maximum depth increased for Node BM33
  WARNING 02: maximum depth increased for Node BM34
  WARNING 02: maximum depth increased for Node BM38
  WARNING 02: maximum depth increased for Node BM4
  WARNING 02: maximum depth increased for Node BM40
  WARNING 02: maximum depth increased for Node BM7
  WARNING 02: maximum depth increased for Node C003
  WARNING 02: maximum depth increased for Node C004
  WARNING 02: maximum depth increased for Node C005
  WARNING 02: maximum depth increased for Node C006
  WARNING 02: maximum depth increased for Node C006_2D
  WARNING 02: maximum depth increased for Node C007
  WARNING 02: maximum depth increased for Node C008
  WARNING 02: maximum depth increased for Node C008_2D
  WARNING 02: maximum depth increased for Node C009
  WARNING 02: maximum depth increased for Node C009_2D
  WARNING 02: maximum depth increased for Node C010
  WARNING 02: maximum depth increased for Node C011
  WARNING 02: maximum depth increased for Node C011_2D
  WARNING 02: maximum depth increased for Node C012
  WARNING 02: maximum depth increased for Node C013
  WARNING 02: maximum depth increased for Node C013_2D
  WARNING 02: maximum depth increased for Node C014
  WARNING 02: maximum depth increased for Node C014_2D
  WARNING 02: maximum depth increased for Node C019
  WARNING 02: maximum depth increased for Node C019_2D
  WARNING 02: maximum depth increased for Node C020
  WARNING 02: maximum depth increased for Node C021
  WARNING 02: maximum depth increased for Node C022
  WARNING 02: maximum depth increased for Node C023
  WARNING 02: maximum depth increased for Node C023_2D
  WARNING 02: maximum depth increased for Node C024
  WARNING 02: maximum depth increased for Node C024_2D
  WARNING 02: maximum depth increased for Node C028
  WARNING 02: maximum depth increased for Node C028_2D
  WARNING 02: maximum depth increased for Node C029
  WARNING 02: maximum depth increased for Node C030
  WARNING 02: maximum depth increased for Node C030_2D
  WARNING 02: maximum depth increased for Node C033
  WARNING 02: maximum depth increased for Node C035
  WARNING 02: maximum depth increased for Node C036
  WARNING 02: maximum depth increased for Node C036_2D
  WARNING 02: maximum depth increased for Node C036A
  WARNING 02: maximum depth increased for Node C036A_2D
  WARNING 02: maximum depth increased for Node C037
  WARNING 02: maximum depth increased for Node C038
  WARNING 02: maximum depth increased for Node C038_2D
  WARNING 02: maximum depth increased for Node C038A
  WARNING 02: maximum depth increased for Node C038A_2D
  WARNING 02: maximum depth increased for Node C038B
  WARNING 02: maximum depth increased for Node C038B_2D
  WARNING 02: maximum depth increased for Node C040
  WARNING 02: maximum depth increased for Node C041
  WARNING 02: maximum depth increased for Node C041_2D
  WARNING 02: maximum depth increased for Node C044
  WARNING 02: maximum depth increased for Node C044_2D
  WARNING 02: maximum depth increased for Node C045
  WARNING 02: maximum depth increased for Node C046
  WARNING 02: maximum depth increased for Node C046_2D
  WARNING 02: maximum depth increased for Node C047
  WARNING 02: maximum depth increased for Node C048
  WARNING 02: maximum depth increased for Node C048_2D
  WARNING 02: maximum depth increased for Node C049
  WARNING 02: maximum depth increased for Node C051
  WARNING 02: maximum depth increased for Node C051B
  WARNING 02: maximum depth increased for Node C051B_2D
  WARNING 02: maximum depth increased for Node C053
  WARNING 02: maximum depth increased for Node C054
  WARNING 02: maximum depth increased for Node C054_2D
  WARNING 02: maximum depth increased for Node C055
  WARNING 02: maximum depth increased for Node C057
  WARNING 02: maximum depth increased for Node C057_2D
  WARNING 02: maximum depth increased for Node C060
  WARNING 02: maximum depth increased for Node C060_2D
  WARNING 02: maximum depth increased for Node C061
  WARNING 02: maximum depth increased for Node C062
  WARNING 02: maximum depth increased for Node C062_2D
  WARNING 02: maximum depth increased for Node C063
  WARNING 02: maximum depth increased for Node C064
  WARNING 02: maximum depth increased for Node C064_2D
  WARNING 02: maximum depth increased for Node C065
  WARNING 02: maximum depth increased for Node C066
  WARNING 02: maximum depth increased for Node C067
  WARNING 02: maximum depth increased for Node C068
  WARNING 02: maximum depth increased for Node C068_2D
  WARNING 02: maximum depth increased for Node C069
  WARNING 02: maximum depth increased for Node C070
  WARNING 02: maximum depth increased for Node C070_2D
  WARNING 02: maximum depth increased for Node C071
  WARNING 02: maximum depth increased for Node C072
  WARNING 02: maximum depth increased for Node C072_2D
  WARNING 02: maximum depth increased for Node C073
  WARNING 02: maximum depth increased for Node C073_2D
  WARNING 02: maximum depth increased for Node C080
  WARNING 02: maximum depth increased for Node C080_2D
  WARNING 02: maximum depth increased for Node C081
  WARNING 02: maximum depth increased for Node C082
  WARNING 02: maximum depth increased for Node C082_2D
  WARNING 02: maximum depth increased for Node C083
  WARNING 02: maximum depth increased for Node C083_2D
  WARNING 02: maximum depth increased for Node C084
  WARNING 02: maximum depth increased for Node C084_2D
  WARNING 02: maximum depth increased for Node C085
  WARNING 02: maximum depth increased for Node C086
  WARNING 02: maximum depth increased for Node C086_2D
  WARNING 02: maximum depth increased for Node C088
  WARNING 02: maximum depth increased for Node C088_2D
  WARNING 02: maximum depth increased for Node C089
  WARNING 02: maximum depth increased for Node C090
  WARNING 02: maximum depth increased for Node C090_2D
  WARNING 02: maximum depth increased for Node C092
  WARNING 02: maximum depth increased for Node C092A
  WARNING 02: maximum depth increased for Node C092B
  WARNING 02: maximum depth increased for Node C092B_2D
  WARNING 02: maximum depth increased for Node C093
  WARNING 02: maximum depth increased for Node C093_2D
  WARNING 02: maximum depth increased for Node C094
  WARNING 02: maximum depth increased for Node C095
  WARNING 02: maximum depth increased for Node C095_2D
  WARNING 02: maximum depth increased for Node C096
  WARNING 02: maximum depth increased for Node C096_2D
  WARNING 02: maximum depth increased for Node C097
  WARNING 02: maximum depth increased for Node C098
  WARNING 02: maximum depth increased for Node C098_2D
  WARNING 02: maximum depth increased for Node C099
  WARNING 02: maximum depth increased for Node C103
  WARNING 02: maximum depth increased for Node C103_2D
  WARNING 02: maximum depth increased for Node Chase
  WARNING 02: maximum depth increased for Node CP03
  WARNING 02: maximum depth increased for Node CP04
  WARNING 02: maximum depth increased for Node CP06
  WARNING 02: maximum depth increased for Node CP07
  WARNING 02: maximum depth increased for Node CP10
  WARNING 02: maximum depth increased for Node CP114
  WARNING 02: maximum depth increased for Node CP16
  WARNING 02: maximum depth increased for Node CP17
  WARNING 02: maximum depth increased for Node CP18
  WARNING 02: maximum depth increased for Node CP20
  WARNING 02: maximum depth increased for Node CP22
  WARNING 02: maximum depth increased for Node CP24
  WARNING 02: maximum depth increased for Node CP25
  WARNING 02: maximum depth increased for Node CP27
  WARNING 02: maximum depth increased for Node CP28
  WARNING 02: maximum depth increased for Node CP33
  WARNING 02: maximum depth increased for Node CP35
  WARNING 02: maximum depth increased for Node CPM1
  WARNING 02: maximum depth increased for Node CPM11
  WARNING 02: maximum depth increased for Node CPM12
  WARNING 02: maximum depth increased for Node CPM13
  WARNING 02: maximum depth increased for Node CPM15
  WARNING 02: maximum depth increased for Node CPM19
  WARNING 02: maximum depth increased for Node CPM2
  WARNING 02: maximum depth increased for Node CPM21
  WARNING 02: maximum depth increased for Node CPM23
  WARNING 02: maximum depth increased for Node CPM26
  WARNING 02: maximum depth increased for Node CPM29
  WARNING 02: maximum depth increased for Node CPM30
  WARNING 02: maximum depth increased for Node CPM31
  WARNING 02: maximum depth increased for Node CPM32
  WARNING 02: maximum depth increased for Node CPM34
  WARNING 02: maximum depth increased for Node CPM5
  WARNING 02: maximum depth increased for Node CPM8
  WARNING 02: maximum depth increased for Node CPM9
  WARNING 02: maximum depth increased for Node D02
  WARNING 02: maximum depth increased for Node D02_2D
  WARNING 02: maximum depth increased for Node D03
  WARNING 02: maximum depth increased for Node D04
  WARNING 02: maximum depth increased for Node D04_2D
  WARNING 02: maximum depth increased for Node D05
  WARNING 02: maximum depth increased for Node D05_2D
  WARNING 02: maximum depth increased for Node D06
  WARNING 02: maximum depth increased for Node D07
  WARNING 02: maximum depth increased for Node D07_2D
  WARNING 02: maximum depth increased for Node D08
  WARNING 02: maximum depth increased for Node D08_2D
  WARNING 02: maximum depth increased for Node D09
  WARNING 02: maximum depth increased for Node D10
  WARNING 02: maximum depth increased for Node D10_2D
  WARNING 02: maximum depth increased for Node D11
  WARNING 02: maximum depth increased for Node D11_2D
  WARNING 02: maximum depth increased for Node D12
  WARNING 02: maximum depth increased for Node D13
  WARNING 02: maximum depth increased for Node D13_2D
  WARNING 02: maximum depth increased for Node D14
  WARNING 02: maximum depth increased for Node D15
  WARNING 02: maximum depth increased for Node D15_2D
  WARNING 02: maximum depth increased for Node D16
  WARNING 02: maximum depth increased for Node D17
  WARNING 02: maximum depth increased for Node D18
  WARNING 02: maximum depth increased for Node E0
  WARNING 02: maximum depth increased for Node E04
  WARNING 02: maximum depth increased for Node E04_2D
  WARNING 02: maximum depth increased for Node E05
  WARNING 02: maximum depth increased for Node E06
  WARNING 02: maximum depth increased for Node E06_2D
  WARNING 02: maximum depth increased for Node E08
  WARNING 02: maximum depth increased for Node E1
  WARNING 02: maximum depth increased for Node E13
  WARNING 02: maximum depth increased for Node E14
  WARNING 02: maximum depth increased for Node E16
  WARNING 02: maximum depth increased for Node E17
  WARNING 02: maximum depth increased for Node E2
  WARNING 02: maximum depth increased for Node E21
  WARNING 02: maximum depth increased for Node E22
  WARNING 02: maximum depth increased for Node E25
  WARNING 02: maximum depth increased for Node E26
  WARNING 02: maximum depth increased for Node E4
  WARNING 02: maximum depth increased for Node E5
  WARNING 02: maximum depth increased for Node E8
  WARNING 02: maximum depth increased for Node E9
  WARNING 02: maximum depth increased for Node EM10
  WARNING 02: maximum depth increased for Node EM11
  WARNING 02: maximum depth increased for Node EM12
  WARNING 02: maximum depth increased for Node EM15
  WARNING 02: maximum depth increased for Node EM18
  WARNING 02: maximum depth increased for Node EM20
  WARNING 02: maximum depth increased for Node EM23
  WARNING 02: maximum depth increased for Node EM24
  WARNING 02: maximum depth increased for Node EM3
  WARNING 02: maximum depth increased for Node EM6
  WARNING 02: maximum depth increased for Node EM7
  WARNING 02: maximum depth increased for Node F1
  WARNING 02: maximum depth increased for Node F2
  WARNING 02: maximum depth increased for Node F3
  WARNING 02: maximum depth increased for Node G2
  WARNING 02: maximum depth increased for Node GM01
  WARNING 02: maximum depth increased for Node GM1
  WARNING 02: maximum depth increased for Node GM3
  WARNING 02: maximum depth increased for Node GM4
  WARNING 02: maximum depth increased for Node GM5
  WARNING 02: maximum depth increased for Node GM6
  WARNING 02: maximum depth increased for Node GM7
  WARNING 02: maximum depth increased for Node H1
  WARNING 02: maximum depth increased for Node H2
  WARNING 02: maximum depth increased for Node H3
  WARNING 02: maximum depth increased for Node IH-10_JUNCTION_E01
  WARNING 02: maximum depth increased for Node IH-10_JUNCTION_E116
  WARNING 02: maximum depth increased for Node IH-10_MH_C1
  WARNING 02: maximum depth increased for Node IH-10_MH_C105A
  WARNING 02: maximum depth increased for Node IH-10_MH_C107
  WARNING 02: maximum depth increased for Node IH-10_MH_C121
  WARNING 02: maximum depth increased for Node IH-10_MH_C2A
  WARNING 02: maximum depth increased for Node IH-10_MH_C7
  WARNING 02: maximum depth increased for Node IH-10_MH_WD13
  WARNING 02: maximum depth increased for Node IH-10_MH_WD19
  WARNING 02: maximum depth increased for Node IH-10_MH_WD20A
  WARNING 02: maximum depth increased for Node IH-10_MH_WD3
  WARNING 02: maximum depth increased for Node IH-10_MH_WD35
  WARNING 02: maximum depth increased for Node IH-10_MH_WD4
  WARNING 02: maximum depth increased for Node IH-10_MH_WD6
  WARNING 02: maximum depth increased for Node IH-10_MH_WD7
  WARNING 02: maximum depth increased for Node J1
  WARNING 02: maximum depth increased for Node J2
  WARNING 02: maximum depth increased for Node J3
  WARNING 02: maximum depth increased for Node L01
  WARNING 02: maximum depth increased for Node L03
  WARNING 02: maximum depth increased for Node L06
  WARNING 02: maximum depth increased for Node L08
  WARNING 02: maximum depth increased for Node L09
  WARNING 02: maximum depth increased for Node L11
  WARNING 02: maximum depth increased for Node L12
  WARNING 02: maximum depth increased for Node L15
  WARNING 02: maximum depth increased for Node L16
  WARNING 02: maximum depth increased for Node L19
  WARNING 02: maximum depth increased for Node L21
  WARNING 02: maximum depth increased for Node L22
  WARNING 02: maximum depth increased for Node L23
  WARNING 02: maximum depth increased for Node L26
  WARNING 02: maximum depth increased for Node L27
  WARNING 02: maximum depth increased for Node L35
  WARNING 02: maximum depth increased for Node L36
  WARNING 02: maximum depth increased for Node L37
  WARNING 02: maximum depth increased for Node L39
  WARNING 02: maximum depth increased for Node LB001
  WARNING 02: maximum depth increased for Node M01
  WARNING 02: maximum depth increased for Node M03
  WARNING 02: maximum depth increased for Node M04
  WARNING 02: maximum depth increased for Node M06
  WARNING 02: maximum depth increased for Node M07
  WARNING 02: maximum depth increased for Node M09
  WARNING 02: maximum depth increased for Node M10
  WARNING 02: maximum depth increased for Node M12
  WARNING 02: maximum depth increased for Node M13
  WARNING 02: maximum depth increased for Node M16
  WARNING 02: maximum depth increased for Node M18
  WARNING 02: maximum depth increased for Node M20
  WARNING 02: maximum depth increased for Node M21
  WARNING 02: maximum depth increased for Node M23
  WARNING 02: maximum depth increased for Node M24
  WARNING 02: maximum depth increased for Node MM11
  WARNING 02: maximum depth increased for Node MM14
  WARNING 02: maximum depth increased for Node MM15
  WARNING 02: maximum depth increased for Node MM17
  WARNING 02: maximum depth increased for Node MM19
  WARNING 02: maximum depth increased for Node MM2
  WARNING 02: maximum depth increased for Node MM22
  WARNING 02: maximum depth increased for Node MM25
  WARNING 02: maximum depth increased for Node MM5
  WARNING 02: maximum depth increased for Node MM8
  WARNING 02: maximum depth increased for Node MX1
  WARNING 02: maximum depth increased for Node MX2
  WARNING 02: maximum depth increased for Node N02
  WARNING 02: maximum depth increased for Node N03
  WARNING 02: maximum depth increased for Node N06
  WARNING 02: maximum depth increased for Node N07
  WARNING 02: maximum depth increased for Node N09
  WARNING 02: maximum depth increased for Node N10
  WARNING 02: maximum depth increased for Node N13
  WARNING 02: maximum depth increased for Node N14
  WARNING 02: maximum depth increased for Node N16
  WARNING 02: maximum depth increased for Node N17
  WARNING 02: maximum depth increased for Node N19
  WARNING 02: maximum depth increased for Node N20
  WARNING 02: maximum depth increased for Node N21
  WARNING 02: maximum depth increased for Node N22
  WARNING 02: maximum depth increased for Node N24
  WARNING 02: maximum depth increased for Node N25
  WARNING 02: maximum depth increased for Node N26
  WARNING 02: maximum depth increased for Node N27
  WARNING 02: maximum depth increased for Node NM1
  WARNING 02: maximum depth increased for Node NM11
  WARNING 02: maximum depth increased for Node NM12
  WARNING 02: maximum depth increased for Node NM15
  WARNING 02: maximum depth increased for Node NM18
  WARNING 02: maximum depth increased for Node NM23
  WARNING 02: maximum depth increased for Node NM4
  WARNING 02: maximum depth increased for Node NM5
  WARNING 02: maximum depth increased for Node NM8
  WARNING 02: maximum depth increased for Node OM0
  WARNING 02: maximum depth increased for Node OM1
  WARNING 02: maximum depth increased for Node OM10
  WARNING 02: maximum depth increased for Node OM11
  WARNING 02: maximum depth increased for Node OM2
  WARNING 02: maximum depth increased for Node OM3
  WARNING 02: maximum depth increased for Node OM4
  WARNING 02: maximum depth increased for Node OM5
  WARNING 02: maximum depth increased for Node OM6
  WARNING 02: maximum depth increased for Node OM7
  WARNING 02: maximum depth increased for Node OM8
  WARNING 02: maximum depth increased for Node OM9
  WARNING 02: maximum depth increased for Node OOUT
  WARNING 02: maximum depth increased for Node P04
  WARNING 02: maximum depth increased for Node P05
  WARNING 02: maximum depth increased for Node P06
  WARNING 02: maximum depth increased for Node P08
  WARNING 02: maximum depth increased for Node P09
  WARNING 02: maximum depth increased for Node P12
  WARNING 02: maximum depth increased for Node P13
  WARNING 02: maximum depth increased for Node P17
  WARNING 02: maximum depth increased for Node P18
  WARNING 02: maximum depth increased for Node P23
  WARNING 02: maximum depth increased for Node P24
  WARNING 02: maximum depth increased for Node P27
  WARNING 02: maximum depth increased for Node P28
  WARNING 02: maximum depth increased for Node P30
  WARNING 02: maximum depth increased for Node P31
  WARNING 02: maximum depth increased for Node P33
  WARNING 02: maximum depth increased for Node P34
  WARNING 02: maximum depth increased for Node P36
  WARNING 02: maximum depth increased for Node P38
  WARNING 02: maximum depth increased for Node P40
  WARNING 02: maximum depth increased for Node P41
  WARNING 02: maximum depth increased for Node P43
  WARNING 02: maximum depth increased for Node P44
  WARNING 02: maximum depth increased for Node P46
  WARNING 02: maximum depth increased for Node P47
  WARNING 02: maximum depth increased for Node P49
  WARNING 02: maximum depth increased for Node P50
  WARNING 02: maximum depth increased for Node PM1
  WARNING 02: maximum depth increased for Node PM10
  WARNING 02: maximum depth increased for Node PM11
  WARNING 02: maximum depth increased for Node PM14
  WARNING 02: maximum depth increased for Node PM15
  WARNING 02: maximum depth increased for Node PM16
  WARNING 02: maximum depth increased for Node PM19
  WARNING 02: maximum depth increased for Node PM2
  WARNING 02: maximum depth increased for Node PM20
  WARNING 02: maximum depth increased for Node PM21
  WARNING 02: maximum depth increased for Node PM22
  WARNING 02: maximum depth increased for Node PM25
  WARNING 02: maximum depth increased for Node PM26
  WARNING 02: maximum depth increased for Node PM29
  WARNING 02: maximum depth increased for Node PM3
  WARNING 02: maximum depth increased for Node PM32
  WARNING 02: maximum depth increased for Node PM35
  WARNING 02: maximum depth increased for Node PM37
  WARNING 02: maximum depth increased for Node PM39
  WARNING 02: maximum depth increased for Node PM42
  WARNING 02: maximum depth increased for Node PM45
  WARNING 02: maximum depth increased for Node PM48
  WARNING 02: maximum depth increased for Node PM51
  WARNING 02: maximum depth increased for Node PM7
  WARNING 02: maximum depth increased for Node W14001_ML_16734
  WARNING 02: maximum depth increased for Node W14001_ML_16756
  WARNING 02: maximum depth increased for Node W14001_MR_16744
  WARNING 02: maximum depth increased for Node W14001_sta10923
  WARNING 02: maximum depth increased for Node W14001_sta12065
  WARNING 02: maximum depth increased for Node W14001_sta12528
  WARNING 02: maximum depth increased for Node W14001_sta13031
  WARNING 02: maximum depth increased for Node W14001_sta13602
  WARNING 02: maximum depth increased for Node W14001_sta14232
  WARNING 02: maximum depth increased for Node W14001_sta14781
  WARNING 02: maximum depth increased for Node W14001_sta14945
  WARNING 02: maximum depth increased for Node W14001_sta14971
  WARNING 02: maximum depth increased for Node W14001_sta15025
  WARNING 02: maximum depth increased for Node W14001_sta15481
  WARNING 02: maximum depth increased for Node W14001_sta15671
  WARNING 02: maximum depth increased for Node W14001_sta15863
  WARNING 02: maximum depth increased for Node W14001_sta16016
  WARNING 02: maximum depth increased for Node W14001_sta16681
  WARNING 02: maximum depth increased for Node W14001_sta16756
  WARNING 02: maximum depth increased for Node W14001_sta16821
  WARNING 02: maximum depth increased for Node W14001_sta18066
  WARNING 02: maximum depth increased for Node W14001_sta18481
  WARNING 02: maximum depth increased for Node W14001_sta19161
  WARNING 02: maximum depth increased for Node W14001_sta19481
  WARNING 02: maximum depth increased for Node W14001_sta19701
  WARNING 02: maximum depth increased for Node W14001_sta19981
  WARNING 02: maximum depth increased for Node W14001_sta20481
  WARNING 02: maximum depth increased for Node W14001_sta21026
  WARNING 02: maximum depth increased for Node W1400105_sta0010
  WARNING 02: maximum depth increased for Node W1400105_sta0157
  WARNING 02: maximum depth increased for Node W1400105_sta0213
  WARNING 02: maximum depth increased for Node W1400105_sta1458
  WARNING 02: maximum depth increased for Node W5400101-OUT
  WARNING 02: maximum depth increased for Node WittePond
  
  ****************
  Analysis Options
  ****************
  Flow Units ............... CFS
  Process Models:
    Rainfall/Runoff ........ YES
    RDII ................... NO
    Snowmelt ............... NO
    Groundwater ............ NO
    Flow Routing ........... YES
    Ponding Allowed ........ YES
    Water Quality .......... NO
  Infiltration Method ...... GREEN_AMPT
  Flow Routing Method ...... DYNWAVE
  Surcharge Method ......... EXTRAN
  Starting Date ............ 05/08/2014 00:00:00
  Ending Date .............. 05/08/2014 12:00:00
  Antecedent Dry Days ...... 0.0
  Report Time Step ......... 00:15:00
  Wet Time Step ............ 00:05:00
  Dry Time Step ............ 01:00:00
  Routing Time Step ........ 30.00 sec
  Variable Time Step ....... YES
  Maximum Trials ........... 8
  Number of Threads ........ 1
  Head Tolerance ........... 0.005000 ft
  
  
  **************************        Volume         Depth
  Runoff Quantity Continuity     acre-feet        inches
  **************************     ---------       -------
  Total Precipitation ......       866.014         4.000
  Evaporation Loss .........         0.000         0.000
  Infiltration Loss ........        94.638         0.437
  Surface Runoff ...........       758.676         3.504
  Final Storage ............        13.953         0.064
  Continuity Error (%) .....        -0.145
  
  
  **************************        Volume        Volume
  Flow Routing Continuity        acre-feet      10^6 gal
  **************************     ---------     ---------
  Dry Weather Inflow .......         0.000         0.000
  Wet Weather Inflow .......       758.643       247.215
  Groundwater Inflow .......         0.000         0.000
  RDII Inflow ..............         0.000         0.000
  External Inflow ..........         0.000         0.000
  External Outflow .........        28.504         9.288
  Flooding Loss ............       268.642        87.541
  Evaporation Loss .........         0.000         0.000
  Exfiltration Loss ........         0.000         0.000
  Initial Stored Volume ....         0.000         0.000
  Final Stored Volume ......       459.869       149.855
  Continuity Error (%) .....         0.215
  
  
  *************************
  Highest Continuity Errors
  *************************
  Node 20119 (-101.49%)
  Node 20120 (94.09%)
  Node 20114 (53.66%)
  Node 20108 (49.76%)
  Node 30014 (48.73%)
  
  
  ***************************
  Time-Step Critical Elements
  ***************************
  Link 3219153.1 (39.77%)
  Link 20103.1 (34.17%)
  Link 5788-1.1 (16.26%)
  Link 5788-2.1 (4.17%)
  Link 3219152.1 (4.13%)
  
  
  ********************************
  Highest Flow Instability Indexes
  ********************************
  Link W14001_sta16756.2 (140)
  Link W14001_sta16756.1 (138)
  Link W14001_ML_16756.1 (136)
  Link A15.1 (135)
  Link A13.1 (135)
  
  
  *********************************
  Most Frequent Nonconverging Nodes
  *********************************
  Node 1018_Outfall (92.09%)
  Node -1027_Outfall (92.09%)
  Node 5218 (92.09%)
  Node 5251 (92.09%)
  Node 5632 (92.09%)
  
  
  *************************
  Routing Time Step Summary
  *************************
  Minimum Time Step           :     0.50 sec
  Average Time Step           :     0.97 sec
  Maximum Time Step           :    30.00 sec
  % of Time in Steady State   :     0.00
  Average Iterations per Step :     7.82
  % of Steps Not Converging   :    92.09
  Time Step Frequencies       :
     30.000 - 13.228 sec      :     0.30 %
     13.228 -  5.833 sec      :     0.00 %
      5.833 -  2.572 sec      :     0.00 %
      2.572 -  1.134 sec      :     0.36 %
      1.134 -  0.500 sec      :    99.34 %
  
  
  ***************************
  Subcatchment Runoff Summary
  ***************************
  
  ------------------------------------------------------------------------------------------------------------------------------
                            Total      Total      Total      Total     Imperv       Perv      Total       Total     Peak  Runoff
                           Precip      Runon       Evap      Infil     Runoff     Runoff     Runoff      Runoff   Runoff   Coeff
  Subcatchment                 in         in         in         in         in         in         in    10^6 gal      CFS
  ------------------------------------------------------------------------------------------------------------------------------
  S_1018                     4.00       0.00       0.00       0.17       3.27       0.48       3.75        3.76    73.27   0.936
  S_5009                     4.00       0.00       0.00       0.19       3.15       0.59       3.74        0.11     2.23   0.936
  S_5013                     4.00       0.00       0.00       0.35       2.59       1.00       3.59        0.81    16.15   0.897
[...]
  CPM11.1                    10.73     10.73     10.74      0.72         1.03
  CPM12.1                    10.43     10.43     10.67      0.01         0.01
  CPM13.1                    10.72     10.72     10.73      0.01         0.01
  CPM15.1                    10.46     10.46     10.68      0.01         0.01
  CPM19.1                    10.76     10.76     10.80      0.01         0.01
  CPM2.1                     10.78     10.78     10.78      0.01         0.01
  CPM21.1                    10.76     10.76     10.76      9.71         7.51
  CPM23.1                    10.75     10.75     10.76      8.15         2.90
  CPM26.1                    10.75     10.76     10.75      7.84         0.01
  CPM29.1                    10.75     10.75     10.76     10.68         0.01
  CPM30.1                    10.62     10.62     10.65      0.01         0.01
  CPM31.1                    10.75     10.75     10.75     10.74         0.01
  CPM32.1                    10.67     10.67     10.71      0.01         0.01
  CPM34.1                     5.76      5.76     10.67      0.01         0.01
  CPM5.1                     10.76     10.76     10.78      0.01         0.01
  CPM8.1                     10.75     10.75     10.76     10.68         0.01
  CPM9.1                     10.74     10.74     10.75     10.68         0.01
  D02.1                       6.69      6.69      7.15      0.79         1.37
  D03.1                      10.76     10.76     10.77     10.73         0.08
  D04.1                       6.69      6.69      7.15      0.01         0.01
  D05.1                      10.65     10.65     10.66      0.01         0.01
  D06.1                      10.72     10.72     10.73      8.86         7.04
  D07.1                      10.65     10.65     10.66      0.01         0.01
  D08.1                       9.62      9.62      9.76      0.01         0.01
  D09.1                       9.76      9.76      9.78      2.65         2.74
  D10.1                       9.62      9.62      9.76      0.01         0.01
  D11.1                       9.76      9.76      9.78      1.40         0.01
  D12.1                       9.77      9.78      9.78      8.93         7.06
  D13.1                       9.67      9.67      9.78      0.01         0.01
  D14.1                       9.77      9.78      9.79      9.83         9.77
  D15.1                       9.76      9.76      9.78      0.01         0.01
  D16.1                       9.77      9.79      9.77      9.87         9.77
  D17.1                       9.81      9.81      9.94      7.91         0.01
  D18.1                       9.81      9.83      9.81      9.74         0.05
  E0.1                       10.62     10.69     10.62     10.70        10.62
  E05.1                      10.74     10.74     10.74      7.24         7.22
  E08.1                       8.00      8.03      8.46      0.09         0.02
  E13.1                      10.62     10.62     10.62      0.01         0.01
  E14.1                      10.62     10.62     10.62      0.01         0.01
  E16.1                      10.64     10.64     10.65      0.01         0.01
  E17.1                       0.01      0.28      0.01      0.55         0.01
  E21.1                      10.69     10.69     10.70      0.01         0.01
  E22.1                      10.69     10.69     10.70      0.01         0.01
  E25.1                      10.69     10.69     10.69      0.01         0.01
  E26.1                      10.69     10.69     10.69      0.01         0.01
  E4.1                        9.03      9.03      9.06      0.01         0.01
  E5.1                        0.01      0.01      0.31      0.01         0.01
  E8.1                       10.60     10.60     10.60      0.01         0.01
  E9.1                       10.60     10.60     10.60      0.01         0.01
  EM10.1                     10.76     10.76     10.76      0.16         0.16
  EM11.1                     10.75     10.75     10.75      0.12         0.10
  EM12.1                     10.76     10.77     10.76      0.18         0.16
  EM15.1                     10.75     10.78     10.75      0.16         0.11
  EM18.1                     10.78     10.78     10.78      2.12         0.11
  EM20.1                     10.78     10.79     10.78      0.12         0.11
  EM23.1                     10.74     10.74     10.75      0.01         0.01
  EM24.1                     10.71     10.73     10.71      0.04         0.23
  EM3.1                      10.69     10.74     10.69     10.74        10.69
  EM6.1                      10.74     10.74     10.74     10.74        10.74
  EM7.1                      10.74     10.76     10.74     10.77        10.74
  F1.1                       10.72     10.72     10.75      0.01         0.01
  F2.1                       10.52     10.52     10.57      9.35         9.98
  F3.1                        0.01     10.57      0.01     10.66         0.01
  G2.1                        0.01      1.49      0.01      1.60         0.01
  GM01.1                      0.01     10.70      0.01     10.72         0.01
  GM1.1                      10.71     10.71     10.72      0.01         0.01
  GM3.1                      10.70     10.71     10.70      9.43         7.74
  GM4.1                      10.70     10.70     10.71      3.97         4.52
  GM5.1                      10.70     10.71     10.70      0.04         2.22
  GM6.1                      10.70     10.70     10.71      2.17         2.97
  GM7.1                      10.51     10.51     10.70      0.01         0.01
  H1.1                       10.75     10.75     10.80      0.01         0.01
  H2.1                        9.89      9.89     10.75      0.01         0.01
  H3.1                       10.75     10.75     10.75      0.01         0.01
  IH-10_JUNCTION_E01.1        0.01     10.72      0.01     10.75         0.01
  IH-10_JUNCTION_E01.2        0.01     10.72      0.01     10.75         0.01
  IH-10_JUNCTION_E01.3        0.01     10.72      0.01     10.75         0.01
  IH-10_JUNCTION_E116.1       10.75     10.76     10.75      9.46         0.89
  IH-10_MH_C1.1              10.69     10.69     10.69     10.65        10.67
  IH-10_MH_C1.2               0.01      0.01      0.01      1.76         0.01
  IH-10_MH_C1.3              10.69     10.69     10.69     10.65        10.67
  IH-10_MH_C105A.1           10.70     10.70     10.70      9.76         7.81
  IH-10_MH_C105A.2            0.01      0.01      0.19      1.94         0.01
  IH-10_MH_C105A.3           10.70     10.70     10.70      9.76         7.81
  IH-10_MH_C107.1            10.64     10.64     10.64     10.80         7.69
  IH-10_MH_C107.2            10.70     10.72     10.70     10.13         7.73
  IH-10_MH_C107.5            10.70     10.72     10.70     10.13         7.73
  IH-10_MH_C121.1            10.69     10.69     10.69     10.70        10.69
  IH-10_MH_C121.2             1.40      1.40      1.45      1.90         0.01
  IH-10_MH_C121.3            10.69     10.69     10.69     10.70        10.69
  IH-10_MH_C2A.1             10.65     10.76     10.65      9.68         9.91
  IH-10_MH_C7.3              10.69     10.70     10.69      8.34         8.33
  IH-10_MH_C7.4               1.16      1.64      1.16      1.96         1.16
  IH-10_MH_C7.6              10.69     10.70     10.69      8.34         8.33
  IH-10_MH_WD13.1            10.62     10.65     10.62      8.64         8.58
  IH-10_MH_WD19.1            10.30     10.30     10.62      0.01         0.01
  IH-10_MH_WD19.2            10.30     10.30     10.62      0.01         0.01
  IH-10_MH_WD20A.1           10.64     10.64     10.72      7.76         5.90
  IH-10_MH_WD3.1             10.62     10.62     10.64      1.06         1.12
  IH-10_MH_WD3.2             10.62     10.62     10.64      1.06         1.12
  IH-10_MH_WD35.1            10.62     10.62     10.62      0.01         4.84
  IH-10_MH_WD4.1             10.72     10.72     10.73      7.32         7.01
  IH-10_MH_WD6.1             10.73     10.73     10.76      6.43         6.64
  IH-10_MH_WD7.1             10.76     10.76     10.76      9.25         9.47
  J1.1                       10.71     10.71     10.72     10.57         0.01
  J2.1                        9.68      9.68     10.70      1.23         0.01
  J3.1                       10.70     10.70     10.71      1.35         0.01
  L01.1                       3.32      3.32      3.61      0.01         0.01
  L03.1                       3.50      3.51      3.61      0.01         0.01
  L06.1                      10.27     10.27     10.56      0.01         0.01
  L08.1                      10.43     10.43     10.44      0.01         0.01
  L09.1                      10.43     10.43     10.44      0.01         0.01
  L11.1                      10.44     10.44     10.44      0.01         0.01
  L12.1                      10.44     10.44     10.44      0.01         0.01
  L15.1                       0.01      4.61      0.01      4.74         0.01
  L16.1                      10.48     10.48     10.49      0.01         0.01
  L19.1                      10.49     10.49     10.49      0.01         0.01
  L21.1                      10.49     10.49     10.49      0.01         0.01
  L22.1                      10.31     10.31     10.51      0.01         0.01
  L23.1                      10.51     10.51     10.51      0.01         0.01
  L26.1                       0.01      0.80      0.01      1.03         0.01
  L27.1                       0.01      0.55      0.01      0.95         0.01
  L35.1                      10.57     10.57     10.57      0.01         0.01
  L36.1                      10.57     10.57     10.57      0.01         0.01
  L37.1                       2.44      2.44      7.45      0.01         0.01
  L39.1                       7.32      7.32      7.45      0.01         0.01
  M01.1                      10.68     10.68     10.70      0.01         0.01
  M01.2                      10.55     10.55     10.55      5.03         5.83
  M03.1                      10.18     10.18     10.41      0.01         0.01
  M04.1                      10.41     10.41     10.41      0.01         0.01
  M06.1                      10.41     10.41     10.41      0.01         0.01
  M07.1                      10.41     10.41     10.41      0.01         0.01
  M09.1                      10.46     10.46     10.46      0.01         0.01
  M10.1                      10.46     10.46     10.46      0.01         0.01
  M12.1                      10.44     10.44     10.44      0.01         0.01
  M13.1                      10.43     10.43     10.44      0.01         0.01
  M18.1                       0.01      0.01      1.91      0.01         0.01
  M20.1                      10.42     10.42     10.42      0.01         0.01
  M21.1                      10.42     10.42     10.42      0.01         0.01
  MM11.1                     10.73     10.73     10.74      2.68         2.95
  MM14.1                     10.74     10.74     10.75      4.53         5.39
  MM15.1                     10.56     10.56     10.60      0.01         0.01
  MM17.1                     10.46     10.46     10.56      0.01         0.01
  MM19.1                     10.75     10.75     10.75      7.93         7.95
  MM2.1                      10.70     10.70     10.75      0.01         0.01
  MM22.1                     10.75     10.75     10.76     10.42        10.42
  MM5.1                      10.74     10.75     10.74     10.67        10.63
  MM8.1                      10.73     10.74     10.73      0.08         0.07
  MX1.1                      10.76     10.76     10.76      0.01         1.04
  MX2.2                      10.55     10.55     10.72     10.05         5.34
  N02.1                      10.14     10.43     10.14      0.34         0.04
  N03.1                      10.62     10.62     10.63      0.01         0.01
  N06.1                       9.56     10.48      9.56      1.29         0.46
  N07.1                      10.63     10.63     10.63      2.34         0.01
  N09.1                      10.60     10.60     10.60      1.97         0.01
  N10.1                       0.01      1.88      0.01      1.99         0.01
  N14.1                       1.64      1.64      1.65      0.01         0.01
  N19.1                       9.76      9.76     10.52      0.01         0.01
  N20.1                      10.51     10.52     10.51      0.01         3.02
  N21.1                       4.85      4.85      5.92      0.01         0.25
  N22.1                       5.90      5.92      5.90      0.01         0.01
  N24.1                      10.67     10.67     10.67      0.01         0.01
  N25.1                      10.67     10.73     10.67      0.11         0.01
  N26.1                      10.67     10.67     10.67      0.01         0.01
  N27.1                      10.56     10.56     10.67      0.01         0.01
  NM1.1                      10.76     10.77     10.76     10.45         0.01
  NM11.1                     10.72     10.72     10.75      1.06         1.11
  NM12.1                     10.72     10.72     10.72      0.01         0.01
  NM15.1                     10.74     10.74     10.78      0.01         0.01
  NM18.1                     10.76     10.76     10.81      0.01         0.01
  NM23.1                     10.77     10.77     10.83      0.01         0.01
  NM4.1                      10.77     10.77     10.78      0.01         0.01
  NM5.1                      10.77     10.78     10.77      0.02         0.14
  NM8.1                      10.75     10.75     10.78      2.04         2.08
  OM0.1                      10.71     10.71     10.73      0.01         0.01
  OM1.1                      10.68     10.68     10.71     10.67        10.68
  OM10.1                     10.63     10.68     10.63     10.68        10.63
  OM11.1                     10.64     10.68     10.64      0.06         0.01
  OM2.1                      10.55     10.55     10.74      0.04         0.01
  OM3.1                      10.69     10.69     10.74     10.70        10.69
  OM4.1                      10.65     10.67     10.65      2.50         3.10
  OM5.1                      10.55     10.55     10.67      0.04         0.01
  OM6.1                      10.45     10.45     10.55     10.48        10.45
  OM7.1                      10.27     10.27     10.70      0.01         0.01
  OM8.1                      10.56     10.56     10.67      3.68         3.74
  OM8.2                      10.45     10.45     10.65      2.41         0.01
  P04.1                      10.52     10.52     10.52      0.88         0.01
  P05.1                      10.40     10.40     10.40      0.01         0.01
  P06.1                      10.40     10.40     10.40      0.01         0.01
  P08.1                      10.48     10.48     10.49      0.01         0.01
  P09.1                      10.48     10.48     10.49      0.01         0.01
  P12.1                       3.68      3.77      3.68      0.09         0.86
  P13.1                       3.68      3.68      3.68      0.01         0.39
  P17.1                       2.10      2.40      2.10      0.29         0.01
  P18.1                       2.10      2.10      2.10      0.01         0.01
  P23.1                      10.57     10.57     10.57      1.04         0.01
  P27.1                       5.03      5.03     10.75      0.01         0.01
  P28.1                       0.01      0.01     10.75      0.01         0.01
  P30.1                       0.01      3.08      0.01      3.10         0.01
  P31.1                      10.64     10.64     10.65      4.82         0.01
  P33.1                       0.01      1.46      0.01      1.56         0.01
  P36.1                       1.28      4.49      1.28      5.00         1.28
  P38.1                      10.42     10.42     10.52      0.01         0.01
  P40.1                       9.45      9.57      9.45      0.42         0.02
  P41.1                      10.55     10.57     10.55      1.38         0.01
  P43.1                      10.58     10.58     10.59      0.01         0.01
  P44.1                      10.58     10.58     10.59      0.01         0.01
  P46.1                      10.62     10.62     10.63      0.01         0.01
  P47.1                      10.62     10.62     10.63      0.01         0.01
  PM1.1                      10.77     10.77     10.78     10.82         8.92
  PM10.1                     10.72     10.74     10.72     10.26        10.25
  PM11.1                     10.70     10.70     10.70      4.59         5.15
  PM14.1                     10.70     10.72     10.70      4.59         4.63
  PM15.1                     10.72     10.73     10.72      3.89         2.65
  PM16.1                     10.73     10.73     10.73      3.86         2.56
  PM19.1                     10.70     10.70     10.73      0.01         0.01
  PM2.1                      10.41     10.41     10.52      0.01         0.01
  PM20.1                     10.04     10.04     10.58      0.01         0.01
  PM21.1                     10.70     10.73     10.70      4.49         0.15
  PM22.1                     10.67     10.71     10.67     10.73        10.67
  PM25.1                     10.66     10.75     10.66     10.75        10.66
  PM26.1                     10.60     10.60     10.62      1.24         0.01
  PM29.1                     10.75     10.75     10.75     10.75        10.74
  PM3.1                      10.75     10.75     10.77     10.67         6.98
  PM32.1                     10.75     10.75     10.75      5.25         5.27
  PM35.1                     10.72     10.72     10.75      0.01         0.01
  PM37.1                     10.68     10.68     10.72      0.01         0.01
  PM39.1                     10.55     10.55     10.68      0.01         0.01
  PM42.1                     10.55     10.65     10.55      3.99         0.31
  PM45.1                     10.72     10.75     10.72      0.20         0.16
  PM48.1                     10.75     10.75     10.75      0.14         0.14
  PM51.1                      0.01      0.01     10.71      0.01         0.01
  PM7.1                      10.72     10.72     10.75     10.63        10.51
  W14001_ML_16734.1          10.80     10.80     10.81      0.76         0.91
  W14001_ML_16756.1          10.78     10.78     10.80      1.16         2.01
  W14001_MR_16744.1          10.80     10.80     10.81      1.17         1.26
  W14001_sta16756.1          10.77     10.77     10.80      0.01         0.01
  W14001_sta16756.2          10.77     10.77     10.78      0.01         2.63
  W14001_sta19701.1          10.23     10.23     10.23      0.01         4.68
  W14001_sta19701.2          10.23     10.23     10.23      0.01         4.68
  W1400105_sta0010.1         10.83     10.83     10.84      4.74         2.70
  W1400105_sta0157.1         10.83     10.83     10.83      2.30         2.31
  W1400105_sta0213.1          0.01      0.01      1.30      0.01         0.01
  W5400101-OUT.2             10.83     10.83     10.83      0.24         0.01
  WittePond.1                10.78     10.78     10.78     10.78         0.01
  
  
  ***************
  Pumping Summary
  ***************
  
  ---------------------------------------------------------------------------------------------------------
                                                  Min       Avg       Max     Total     Power    % Time Off
                        Percent   Number of      Flow      Flow      Flow    Volume     Usage    Pump Curve
  Pump                 Utilized   Start-Ups       CFS       CFS       CFS  10^6 gal     Kw-hr    Low   High
  ---------------------------------------------------------------------------------------------------------
  1                       90.90           1      0.00      3.86     19.26     1.045  10627.89    0.0    0.0
  

  Analysis begun on:  Tue Jun 23 20:38:39 2026
  Analysis ended on:  Tue Jun 23 20:39:19 2026
  Total elapsed time: 00:00:40