
  EPA STORM WATER MANAGEMENT MODEL - VERSION 5.2 (Build 5.2.4)
  ------------------------------------------------------------

  extran_master_swmm34_example_SW5.INP 
  Extran Hydraulics Master from Extran 3 and SWMM4 converted to SWMMN5 
  WARNING 03: negative offset ignored for Link OR1@82309d-82308d
  WARNING 03: negative offset ignored for Link OR1@82309b-15009b
  WARNING 03: negative offset ignored for Link One_Weir
  
  ****************
  Analysis Options
  ****************
  Flow Units ............... CFS
  Process Models:
    Rainfall/Runoff ........ NO
    RDII ................... NO
    Snowmelt ............... NO
    Groundwater ............ NO
    Flow Routing ........... YES
    Ponding Allowed ........ YES
    Water Quality .......... YES
  Flow Routing Method ...... DYNWAVE
  Surcharge Method ......... EXTRAN
  Starting Date ............ 01/01/1988 00:00:00
  Ending Date .............. 01/01/1988 06:00:00
  Antecedent Dry Days ...... 0.0
  Report Time Step ......... 00:00:10
  Routing Time Step ........ 10.00 sec
  Variable Time Step ....... NO
  Maximum Trials ........... 8
  Number of Threads ........ 1
  Head Tolerance ........... 0.001000 ft
  
  
  *********************
  Control Actions Taken
  *********************

  
  **************************        Volume        Volume
  Flow Routing Continuity        acre-feet      10^6 gal
  **************************     ---------     ---------
  Dry Weather Inflow .......        24.787         8.077
  Wet Weather Inflow .......         0.000         0.000
  Groundwater Inflow .......         0.000         0.000
  RDII Inflow ..............         0.000         0.000
  External Inflow ..........       195.737        63.784
  External Outflow .........       180.901        58.949
  Flooding Loss ............        22.059         7.188
  Evaporation Loss .........         0.109         0.036
  Exfiltration Loss ........         0.000         0.000
  Initial Stored Volume ....         0.094         0.031
  Final Stored Volume ......        19.302         6.290
  Continuity Error (%) .....        -0.795
  
  
  **************************           TSS
  Quality Routing Continuity           lbs
  **************************    ----------
  Dry Weather Inflow .......      6735.734
  Wet Weather Inflow .......         0.000
  Groundwater Inflow .......         0.000
  RDII Inflow ..............         0.000
  External Inflow ..........         0.000
  External Outflow .........      2498.900
  Flooding Loss ............      1528.647
  Exfiltration Loss ........         0.000
  Mass Reacted .............         8.807
  Initial Stored Mass ......         0.000
  Final Stored Mass ........      2503.189
  Continuity Error (%) .....         2.913
  
  
  *************************
  Highest Continuity Errors
  *************************
  Node 10309 (19.61%)
  Node 81309e (11.17%)
  Node 16009 (6.15%)
  Node 80608a (3.71%)
  Node 82309a (2.93%)
  
  
  ********************************
  Highest Flow Instability Indexes
  ********************************
  Link OR1@82309d-82308d (102)
  Link 8040c (38)
  Link 1630 (16)
  Link 1600 (15)
  Link 8060a (14)
  
  
  *********************************
  Most Frequent Nonconverging Nodes
  *********************************
  Node 10208 (58.75%)
  Node 10208b (58.75%)
  Node 10208c (58.75%)
  Node 10208d (58.75%)
  Node 10208e (58.75%)
  
  
  *************************
  Routing Time Step Summary
  *************************
  Minimum Time Step           :    10.00 sec
  Average Time Step           :    10.00 sec
  Maximum Time Step           :    10.00 sec
  % of Time in Steady State   :     0.00
  Average Iterations per Step :     6.35
  % of Steps Not Converging   :    58.75
  
  
  ******************
  Node Depth Summary
  ******************
  
  ---------------------------------------------------------------------------------
                                 Average  Maximum  Maximum  Time of Max    Reported
                                   Depth    Depth      HGL   Occurrence   Max Depth
  Node                 Type         Feet     Feet     Feet  days hr:min        Feet
  ---------------------------------------------------------------------------------
  10309                JUNCTION     6.95     9.40   111.00     0  02:38        9.40
  10309a               JUNCTION     1.94     2.67   104.27     0  01:51        2.67
  10309b               JUNCTION     1.85     2.86   104.46     0  02:43        2.86
  10309c               JUNCTION     1.82     2.78   104.38     0  03:00        2.78
  10309d               JUNCTION     1.91     2.75   104.35     0  03:06        2.75
  10309e               JUNCTION     1.69     2.67   104.27     0  02:50        2.67
  15009                JUNCTION     1.81     2.71   114.21     0  01:32        2.71
  15009a               JUNCTION     1.45     2.45   113.95     0  01:35        2.45
  15009b               JUNCTION     1.94     3.74   115.24     0  02:41        3.74
  15009c               JUNCTION     0.57     0.92   112.42     0  03:00        0.92
  15009d               JUNCTION     1.45     2.45   113.95     0  01:35        2.45
  15009e               JUNCTION     1.08     2.01   123.01     0  02:04        2.01
  16009                JUNCTION     6.63     9.09   111.09     0  02:38        9.09
  16009a               JUNCTION     2.11     2.86   104.86     0  01:43        2.86
  16009b               JUNCTION     1.97     3.06   105.06     0  02:42        3.06
  16009c               JUNCTION     1.93     2.97   104.97     0  03:00        2.97
  16009d               JUNCTION     2.05     2.94   104.94     0  03:03        2.94
  16009e               JUNCTION     1.81     2.86   104.86     0  02:41        2.86
  16109                JUNCTION     6.08     8.45   111.25     0  02:38        8.45
  16109a               JUNCTION     2.05     2.75   105.55     0  01:50        2.75
  16109b               JUNCTION     1.62     2.59   105.39     0  02:44        2.59
  16109c               JUNCTION     1.72     2.96   105.76     0  03:00        2.96
  16109d               JUNCTION     1.99     2.96   105.76     0  03:01        2.96
  16109e               JUNCTION     1.65     2.76   105.56     0  02:47        2.76
  80408                JUNCTION     9.50    18.58   138.58     0  00:31       18.58
  80408b               JUNCTION     1.19     2.35   126.95     0  00:18        2.35
  80408c               JUNCTION     5.41    13.40   138.00     0  00:39       13.40
  80408d               JUNCTION     4.34    12.75   137.35     0  02:11       12.75
  80408e               JUNCTION     1.60     4.50   129.10     0  01:57        4.50
  80608                JUNCTION     8.79    16.70   135.00     0  00:26       16.70
  80608a               JUNCTION     5.40    16.70   135.00     0  00:33       16.70
  80608b               JUNCTION     1.73     3.28   121.58     0  01:58        3.28
  80608c               JUNCTION     7.27    16.70   135.00     0  00:37       16.70
  80608d               JUNCTION     6.69    16.70   135.00     0  02:11       16.70
  80608e               JUNCTION     3.80    11.04   129.34     0  01:03       11.04
  81009                JUNCTION     2.04     3.22   131.42     0  00:30        3.22
  81009a               JUNCTION     1.47     2.84   131.04     0  00:31        2.84
  81009b               JUNCTION     1.47     2.84   131.04     0  00:31        2.84
  81009c               JUNCTION     1.47     2.85   131.05     0  00:31        2.85
  81009d               JUNCTION     1.47     2.84   131.04     0  00:31        2.84
  81009e               JUNCTION     1.70     3.17   131.37     0  01:22        3.17
  81309                JUNCTION     2.27     3.54   121.04     0  00:59        3.54
  81309a               JUNCTION     1.72     3.10   120.60     0  01:00        3.10
  81309b               JUNCTION     1.62     2.87   120.37     0  00:48        2.87
  81309c               JUNCTION     1.88     3.27   120.77     0  03:00        3.27
  81309d               JUNCTION     1.72     3.10   120.60     0  01:01        3.10
  81309e               JUNCTION     6.27    12.50   130.00     0  00:39       12.50
  82308d               JUNCTION     9.86    21.33   133.63     0  03:00       21.33
  82309                JUNCTION    11.64    30.29   142.59     0  00:26       30.29
  82309a               JUNCTION     8.67    34.66   146.96     0  00:31       34.66
  82309b               JUNCTION     4.09     7.17   119.47     0  02:39        7.17
  Up                   JUNCTION     9.75    22.06   134.36     0  00:37       22.06
  82309e               JUNCTION     6.83    15.81   128.11     0  00:45       15.81
  80408a               JUNCTION     4.17     6.00   130.60     0  00:08        6.00
  10208                OUTFALL      1.64     2.20    92.10     0  02:41        2.20
  10208b               OUTFALL      1.66     2.64    92.54     0  02:43        2.64
  10208c               OUTFALL      1.63     2.55    92.45     0  03:00        2.55
  10208d               OUTFALL      1.72     2.52    92.42     0  03:05        2.52
  10208e               OUTFALL      1.50     2.44    92.34     0  02:51        2.44
  10208a               OUTFALL      1.85     2.45    92.35     0  01:50        2.45
  82309d               STORAGE      9.85    21.31   133.61     0  03:00       21.31
  
  
  *******************
  Node Inflow Summary
  *******************
  
  -------------------------------------------------------------------------------------------------
                                  Maximum  Maximum                  Lateral       Total        Flow
                                  Lateral    Total  Time of Max      Inflow      Inflow     Balance
                                   Inflow   Inflow   Occurrence      Volume      Volume       Error
  Node                 Type           CFS      CFS  days hr:min    10^6 gal    10^6 gal     Percent
  -------------------------------------------------------------------------------------------------
  10309                JUNCTION      0.00   132.49     0  02:39           0        11.5      24.399
  10309a               JUNCTION      0.00   112.68     0  01:41           0        10.4       1.299
  10309b               JUNCTION      0.00   136.15     0  02:42           0        10.9       0.259
  10309c               JUNCTION      0.00   124.92     0  03:00           0        10.2       0.166
  10309d               JUNCTION      0.00   121.91     0  03:03           0        10.6       0.371
  10309e               JUNCTION      0.00   112.50     0  02:36           0        8.58       0.316
  15009                JUNCTION      0.00    60.93     0  01:10           0         5.5       1.897
  15009a               JUNCTION      0.00    51.01     0  01:13           0        4.04       0.347
  15009b               JUNCTION      0.00   179.30     0  00:48           0        6.62       0.931
  15009c               JUNCTION      0.00    53.29     0  03:00           0        4.42       0.011
  15009d               JUNCTION      0.00    50.99     0  01:13           0        4.04       0.274
  15009e               JUNCTION      0.00    50.02     0  01:34           0         3.6       0.674
  16009                JUNCTION      0.00   131.73     0  01:38           0        12.3       6.557
  16009a               JUNCTION      0.00   112.71     0  01:38           0        10.5       1.165
  16009b               JUNCTION      0.00   137.95     0  02:41           0        10.9       0.335
  16009c               JUNCTION      0.00   124.92     0  03:00           0        10.2      -0.002
  16009d               JUNCTION      0.00   121.92     0  03:02           0        10.6       0.489
  16009e               JUNCTION      0.00   112.50     0  02:30           0         8.6       0.275
  16109                JUNCTION      0.00    77.37     0  01:10           0        7.35       0.000
  16109a               JUNCTION      0.00    62.29     0  01:52           0        6.57       0.000
  16109b               JUNCTION      0.00    48.53     0  02:39           0        4.36       0.000
  16109c               JUNCTION      0.00    71.63     0  03:00           0        5.82       0.000
  16109d               JUNCTION      0.00    71.94     0  03:00           0        6.63       0.000
  16109e               JUNCTION      0.00    62.52     0  01:58           0        5.05       0.000
  80408                JUNCTION     66.00    66.00     0  00:15        7.03        7.03       0.458
  80408b               JUNCTION     45.00    45.00     0  00:15        3.64        3.64      -0.163
  80408c               JUNCTION     45.00    45.00     0  00:15        3.64        3.64      -0.241
  80408d               JUNCTION     45.00    45.00     0  00:15        3.64        3.64      -0.191
  80408e               JUNCTION     22.50    22.50     0  00:15        1.82        1.82      -0.334
  80608                JUNCTION      0.00    68.93     0  00:33           0           7       2.480
  80608a               JUNCTION      0.00    47.71     0  00:32           0        3.68       3.858
  80608b               JUNCTION      0.00    46.79     0  00:21           0        3.64       1.651
  80608c               JUNCTION      0.00    46.48     0  00:22           0        3.64       1.620
  80608d               JUNCTION      0.00    46.50     0  00:22           0        3.64       1.809
  80608e               JUNCTION      0.00    34.73     0  03:07           0        1.82       1.570
  81009                JUNCTION     60.00    60.00     0  00:15        5.65        5.65       0.786
  81009a               JUNCTION     50.00    50.00     0  00:15        4.04        4.04      -0.478
  81009b               JUNCTION     50.00    50.00     0  00:15        4.04        4.04      -0.475
  81009c               JUNCTION     50.00    50.00     0  00:15        4.04        4.04      -0.513
  81009d               JUNCTION     50.00    50.00     0  00:15        4.04        4.04      -0.478
  81009e               JUNCTION     50.00    50.00     0  00:15        4.04        4.04      -0.528
  81309                JUNCTION      0.00    64.29     0  00:38           0        5.61       2.069
  81309a               JUNCTION      0.00    53.75     0  00:40           0        4.06       0.412
  81309b               JUNCTION      0.00    53.60     0  00:40           0        4.06       0.417
  81309c               JUNCTION      0.00    53.67     0  00:40           0        4.06       0.888
  81309d               JUNCTION      0.00    53.76     0  00:40           0        4.06       0.413
  81309e               JUNCTION      0.00    53.54     0  00:30           0        4.06      12.570
  82308d               JUNCTION      0.00    15.67     0  04:47           0     0.00715       0.000
  82309                JUNCTION     40.00    99.90     0  00:25        3.23        7.54       2.594
  82309a               JUNCTION     40.00    84.62     0  00:30        3.23        6.77       3.022
  82309b               JUNCTION     40.00    86.11     0  02:03        3.23        6.81      -1.872
  Up                   JUNCTION     40.00    84.04     0  00:33        3.23        6.16      -0.943
  82309e               JUNCTION     40.00    62.52     0  01:58        3.23        5.03      -0.493
  80408a               JUNCTION     65.00    65.00     0  00:15        6.87        6.87       0.730
  10208                OUTFALL       0.00    86.82     0  02:41           0        8.61       0.000
  10208b               OUTFALL       0.00   135.68     0  02:43           0        10.8       0.000
  10208c               OUTFALL       0.00   124.88     0  03:00           0        10.2       0.000
  10208d               OUTFALL       0.00   121.83     0  03:05           0        10.5       0.000
  10208e               OUTFALL       0.00   112.46     0  02:51           0        8.55       0.000
  10208a               OUTFALL       0.00   112.57     0  01:50           0        10.2       0.000
  82309d               STORAGE      40.00    85.69     0  01:11        3.23         6.6      -0.522
  
  
  **********************
  Node Surcharge Summary
  **********************
  
  Surcharging occurs when water rises above the top of the highest conduit.
  ---------------------------------------------------------------------
                                               Max. Height   Min. Depth
                                   Hours       Above Crown    Below Rim
  Node                 Type      Surcharged           Feet         Feet
  ---------------------------------------------------------------------
  10309                JUNCTION        1.12          0.400        0.000
  16009                JUNCTION        0.49          0.091        8.909
  16109                JUNCTION        4.34          2.451       13.749
  80408                JUNCTION        2.98         14.581        0.000
  80408c               JUNCTION        2.41          9.400        0.000
  80408d               JUNCTION        2.17          8.755        0.645
  80408e               JUNCTION        1.13          0.497        8.903
  80608                JUNCTION        2.81         12.700        0.000
  80608a               JUNCTION        2.63         12.700        0.000
  80608c               JUNCTION        2.56         12.700        0.000
  80608d               JUNCTION        2.91         12.700        0.000
  80608e               JUNCTION        2.08          7.036        5.664
  81309e               JUNCTION        2.92          8.000        0.000
  82308d               JUNCTION        4.54         19.326       21.374
  82309                JUNCTION        3.02         24.095       12.405
  82309a               JUNCTION        2.83         28.462        8.038
  Up                   JUNCTION        2.70         15.861       20.639
  82309e               JUNCTION        2.49          9.612        5.188
  80408a               JUNCTION        3.04          2.000        0.000
  
  
  *********************
  Node Flooding Summary
  *********************
  
  Flooding refers to all water that overflows a node, whether it ponds or not.
  --------------------------------------------------------------------------
                                                             Total   Maximum
                                 Maximum   Time of Max       Flood    Ponded
                        Hours       Rate    Occurrence      Volume     Depth
  Node                 Flooded       CFS   days hr:min    10^6 gal      Feet
  --------------------------------------------------------------------------
  10309                   0.77     45.19      0  02:39       0.651     0.000
  80408                   2.78     43.03      0  00:28       0.056     5.181
  80408c                  0.01     18.36      0  00:39       0.003     0.000
  80608                   2.70     46.93      0  00:26       2.517     0.000
  80608a                  0.01     24.07      0  00:33       0.002     0.000
  80608c                  2.37     19.62      0  00:37       0.654     0.000
  80608d                  0.88     12.72      0  03:00       0.212     0.000
  81309e                  0.02     39.43      0  00:39       0.010     0.000
  80408a                  3.01     47.99      0  00:33       3.139     0.000
  
  
  **********************
  Storage Volume Summary
  **********************
  
  ------------------------------------------------------------------------------------------------
                         Average    Avg   Evap  Exfil     Maximum    Max    Time of Max    Maximum
                          Volume   Pcnt   Pcnt   Pcnt      Volume   Pcnt     Occurrence    Outflow
  Storage Unit          1000 ftł   Full   Loss   Loss    1000 ftł   Full    days hr:min        CFS
  ------------------------------------------------------------------------------------------------
  82309d                   7.878   23.1    0.0    0.0      17.046   49.9       0  03:00      71.94
  
  
  ***********************
  Outfall Loading Summary
  ***********************
  
  -------------------------------------------------------------------------
                         Flow       Avg       Max       Total         Total
                         Freq      Flow      Flow      Volume           TSS
  Outfall Node           Pcnt       CFS       CFS    10^6 gal           lbs
  -------------------------------------------------------------------------
  10208                 92.41     57.68     86.82       8.610      1265.888
  10208b                92.59     72.42    135.68      10.834         0.000
  10208c                97.08     65.03    124.88      10.200         0.000
  10208d                92.41     70.53    121.83      10.530         0.000
  10208e                92.50     57.20    112.46       8.548         0.000
  10208a                92.04     68.75    112.57      10.222      1234.024
  -------------------------------------------------------------------------
  System                93.17    391.61    693.80      58.945      2499.912
  
  
  ********************
  Link Flow Summary
  ********************
  
  -----------------------------------------------------------------------------
                                 Maximum  Time of Max   Maximum    Max/    Max/
                                  |Flow|   Occurrence   |Veloc|    Full    Full
  Link                 Type          CFS  days hr:min    ft/sec    Flow   Depth
  -----------------------------------------------------------------------------
  1030e                CONDUIT    112.46     0  02:51      5.72    0.04    0.28
  1030                 CONDUIT     86.82     0  02:41      0.92    0.36    0.62
  1030a                CONDUIT    112.57     0  01:50      5.73    0.04    0.28
  1030b                CONDUIT    135.68     0  02:43      5.98    0.04    0.31
  1030c                CONDUIT    124.88     0  03:00      5.87    0.04    0.30
  1030d                CONDUIT    121.83     0  03:05      5.83    0.04    0.29
  1570                 CONDUIT     60.43     0  01:32      3.82    0.49    0.75
  1570a                CONDUIT     50.46     0  01:35      4.45    0.41    0.48
  1570b                CONDUIT     89.61     0  02:41      5.83    0.73    0.62
  1570c                CONDUIT     53.29     0  03:00      7.16    0.06    0.35
  1570d                CONDUIT     50.45     0  01:35      4.48    0.41    0.49
  1570e                CONDUIT     50.01     0  02:03      4.96    0.29    0.44
  1600                 CONDUIT     71.34     0  01:38      5.91    0.49    1.00
  1600a                CONDUIT     62.29     0  02:01      5.28    0.42    0.47
  1600b                CONDUIT     49.47     0  03:16      5.20    0.34    0.47
  1600c                CONDUIT     71.63     0  03:00      5.16    0.49    0.49
  1600d                CONDUIT     71.92     0  03:02      5.20    0.49    0.49
  1600e                CONDUIT     62.50     0  02:55      4.94    0.43    0.47
  1602                 CONDUIT     77.37     0  01:10      4.33    1.78    1.00
  1602a                CONDUIT     62.29     0  01:52      3.92    1.44    0.78
  1602b                CONDUIT     48.53     0  02:39      3.05    1.12    0.76
  1602c                CONDUIT     71.63     0  03:00      4.31    1.65    0.80
  1602d                CONDUIT     71.94     0  03:00      4.29    1.66    0.80
  1602e                CONDUIT     62.52     0  01:58      3.83    1.44    0.78
  1630                 CONDUIT    132.49     0  02:39      5.55    0.06    1.00
  1630a                CONDUIT    112.68     0  01:41      6.04    0.05    0.31
  1630b                CONDUIT    136.15     0  02:42      5.84    0.06    0.33
  1630c                CONDUIT    124.92     0  03:00      5.40    0.05    0.32
  1630d                CONDUIT    121.91     0  03:03      5.48    0.05    0.32
  1630e                CONDUIT    112.50     0  02:36      5.11    0.05    0.31
  8040                 CONDUIT     68.93     0  00:33     28.16    1.47    1.00
  8040a                CONDUIT     47.71     0  00:32     24.64    1.30    1.00
  8040b                CONDUIT     46.79     0  00:21      7.11    0.64    0.69
  8040c                CONDUIT     46.48     0  00:22      7.11    0.63    1.00
  8040d                CONDUIT     46.50     0  00:22      7.11    0.63    1.00
  8040e                CONDUIT     34.73     0  03:07      6.17    0.47    1.00
  8060                 CONDUIT     59.90     0  00:25      5.30    1.12    1.00
  8060a                CONDUIT     46.93     0  03:15      4.80    0.88    1.00
  8060b                CONDUIT     46.11     0  02:03      4.79    0.87    0.91
  8060c                CONDUIT     44.49     0  03:13      4.82    0.84    1.00
  8060d                CONDUIT     45.69     0  01:11      4.84    0.86    1.00
  8060e                CONDUIT     39.94     0  03:13      3.86    0.75    1.00
  8100                 CONDUIT     64.29     0  00:38     28.80    0.82    0.72
  8100a                CONDUIT     53.75     0  00:40      6.47    0.69    0.64
  8100b                CONDUIT     53.60     0  00:40      6.47    0.69    0.61
  8100c                CONDUIT     53.67     0  00:40      6.51    0.69    0.65
  8100d                CONDUIT     53.76     0  00:40      6.47    0.69    0.64
  8100e                CONDUIT     53.54     0  00:30      6.41    0.69    0.85
  8130                 CONDUIT     60.93     0  01:10      5.73    0.86    0.69
  8130a                CONDUIT     51.01     0  01:13      5.58    0.72    0.61
  8130b                CONDUIT     51.92     0  00:49      5.56    0.74    0.73
  8130c                CONDUIT     49.99     0  03:00      6.96    0.71    0.47
  8130d                CONDUIT     50.99     0  01:13      5.54    0.72    0.61
  8130e                CONDUIT     50.02     0  01:34      4.50    0.93    0.72
  PUMP1@82309e-15009e  PUMP         0.00     0  00:00              0.00
  OR1@82309d-82308d    ORIFICE     15.67     0  04:47                      1.00
  OR1@82309b-15009b    ORIFICE    128.12     0  00:44                      0.23
  One_Weir             WEIR         3.30     0  00:09                      1.00
  
  
  ***************************
  Flow Classification Summary
  ***************************
  
  -------------------------------------------------------------------------------------
                      Adjusted    ---------- Fraction of Time in Flow Class ---------- 
                       /Actual         Up    Down  Sub   Sup   Up    Down  Norm  Inlet 
  Conduit               Length    Dry  Dry   Dry   Crit  Crit  Crit  Crit  Ltd   Ctrl  
  -------------------------------------------------------------------------------------
  1030e                   1.00   0.04  0.00  0.00  0.96  0.00  0.00  0.00  0.00  0.00
  1030                    1.00   0.04  0.00  0.00  0.96  0.00  0.00  0.00  0.00  0.00
  1030a                   1.00   0.00  0.06  0.00  0.94  0.00  0.00  0.00  0.05  0.00
  1030b                   1.00   0.04  0.00  0.00  0.96  0.00  0.00  0.00  0.00  0.00
  1030c                   1.00   0.01  0.00  0.00  0.99  0.00  0.00  0.00  0.00  0.00
  1030d                   1.00   0.04  0.00  0.00  0.96  0.00  0.00  0.00  0.00  0.00
  1570                    1.00   0.00  0.00  0.00  1.00  0.00  0.00  0.00  0.92  0.00
  1570a                   1.00   0.00  0.00  0.00  1.00  0.00  0.00  0.00  0.94  0.00
  1570b                   1.00   0.00  0.00  0.00  1.00  0.00  0.00  0.00  0.51  0.00
  1570c                   2.51   0.00  0.00  0.00  0.45  0.55  0.00  0.00  1.00  0.00
  1570d                   1.00   0.00  0.00  0.00  1.00  0.00  0.00  0.00  0.93  0.00
  1570e                   1.00   0.00  0.09  0.00  0.90  0.00  0.00  0.00  0.90  0.00
  1600                    1.00   0.00  0.00  0.00  0.97  0.03  0.00  0.00  0.00  0.00
  1600a                   1.00   0.00  0.00  0.00  0.97  0.03  0.00  0.00  0.34  0.00
  1600b                   1.00   0.00  0.00  0.00  0.97  0.03  0.00  0.00  0.35  0.00
  1600c                   1.00   0.00  0.00  0.00  1.00  0.00  0.00  0.00  0.46  0.00
  1600d                   1.00   0.00  0.00  0.00  0.97  0.03  0.00  0.00  0.30  0.00
  1600e                   1.00   0.00  0.00  0.00  0.97  0.03  0.00  0.00  0.40  0.00
  1602                    1.00   0.00  0.00  0.00  1.00  0.00  0.00  0.00  0.32  0.00
  1602a                   1.00   0.00  0.00  0.00  1.00  0.00  0.00  0.00  0.00  0.00
  1602b                   1.00   0.00  0.00  0.00  1.00  0.00  0.00  0.00  0.00  0.00
  1602c                   1.00   0.00  0.00  0.00  1.00  0.00  0.00  0.00  0.28  0.00
  1602d                   1.00   0.00  0.00  0.00  1.00  0.00  0.00  0.00  0.00  0.00
  1602e                   1.00   0.00  0.00  0.00  1.00  0.00  0.00  0.00  0.00  0.00
  1630                    1.00   0.00  0.00  0.00  0.96  0.03  0.00  0.00  0.00  0.00
  1630a                   1.00   0.00  0.00  0.00  0.94  0.05  0.00  0.00  0.00  0.00
  1630b                   1.00   0.00  0.00  0.00  0.95  0.05  0.00  0.00  0.26  0.00
  1630c                   1.00   0.00  0.00  0.00  0.94  0.06  0.00  0.00  0.29  0.00
  1630d                   1.00   0.00  0.00  0.00  0.95  0.05  0.00  0.00  0.16  0.00
  1630e                   1.00   0.00  0.00  0.00  0.95  0.05  0.00  0.00  0.28  0.00
  8040                    1.00   0.00  0.00  0.00  0.98  0.02  0.00  0.00  0.33  0.00
  8040a                   1.00   0.00  0.00  0.00  1.00  0.00  0.00  0.00  0.03  0.00
  8040b                   1.00   0.00  0.00  0.00  0.96  0.04  0.00  0.00  0.94  0.00
  8040c                   1.00   0.00  0.00  0.00  0.96  0.04  0.00  0.00  0.51  0.00
  8040d                   1.00   0.00  0.00  0.00  0.96  0.04  0.00  0.00  0.49  0.00
  8040e                   1.00   0.00  0.00  0.00  0.95  0.05  0.00  0.00  0.59  0.00
  8060                    1.00   0.00  0.00  0.00  0.61  0.00  0.00  0.39  0.08  0.00
  8060a                   1.00   0.00  0.00  0.00  0.61  0.00  0.00  0.39  0.10  0.00
  8060b                   1.00   0.00  0.00  0.00  0.58  0.00  0.00  0.42  0.12  0.00
  8060c                   1.00   0.00  0.00  0.00  0.57  0.00  0.00  0.43  0.10  0.00
  8060d                   1.00   0.00  0.00  0.00  0.70  0.00  0.00  0.29  0.12  0.00
  8060e                   1.00   0.00  0.00  0.00  0.58  0.00  0.00  0.42  0.15  0.00
  8100                    1.00   0.00  0.00  0.00  0.96  0.04  0.00  0.00  0.89  0.00
  8100a                   1.00   0.00  0.00  0.00  0.96  0.04  0.00  0.00  0.89  0.00
  8100b                   1.00   0.00  0.00  0.00  0.96  0.04  0.00  0.00  0.89  0.00
  8100c                   1.00   0.00  0.00  0.00  0.96  0.04  0.00  0.00  0.89  0.00
  8100d                   1.00   0.00  0.00  0.00  0.96  0.04  0.00  0.00  0.89  0.00
  8100e                   1.00   0.00  0.00  0.00  0.96  0.04  0.00  0.00  0.50  0.00
  8130                    1.00   0.00  0.00  0.00  0.96  0.04  0.00  0.00  0.17  0.00
  8130a                   1.00   0.00  0.00  0.00  0.96  0.04  0.00  0.00  0.45  0.00
  8130b                   1.00   0.00  0.00  0.00  0.96  0.04  0.00  0.00  0.86  0.00
  8130c                   1.00   0.00  0.00  0.00  0.81  0.19  0.00  0.00  0.03  0.00
  8130d                   1.00   0.00  0.00  0.00  0.96  0.04  0.00  0.00  0.45  0.00
  8130e                   1.00   0.00  0.09  0.00  0.90  0.00  0.00  0.00  0.00  0.00
  
  
  *************************
  Conduit Surcharge Summary
  *************************
  
  ----------------------------------------------------------------------------
                                                           Hours        Hours 
                         --------- Hours Full --------   Above Full   Capacity
  Conduit                Both Ends  Upstream  Dnstream   Normal Flow   Limited
  ----------------------------------------------------------------------------
  1030                        0.01      1.12      0.01      0.01         0.01
  1570                        0.01      0.01      4.70      0.01         0.01
  1600                        4.34      4.34      4.57      0.01         0.01
  1602                        2.34      3.31      4.65      2.81         1.88
  1602a                       0.01      3.13      0.01      3.03         0.01
  1602b                       0.01      2.96      0.01      2.83         0.01
  1602c                       0.01      2.94      0.01      2.84         0.01
  1602d                       0.01      3.69      0.01      3.54         0.01
  1602e                       0.01      2.83      0.01      2.67         0.01
  1630                        0.47      0.47      1.12      0.01         0.01
  8040                        2.78      2.97      2.81      2.96         2.72
  8040a                       2.62      3.04      2.63      0.42         0.02
  8040c                       2.41      2.41      2.56      0.01         0.01
  8040d                       2.17      2.17      2.91      0.01         0.01
  8040e                       1.13      1.13      2.08      0.01         0.01
  8060                        2.81      2.81      3.02      0.07         0.01
  8060a                       2.63      2.63      2.83      0.01         0.01
  8060b                       0.01      0.01      2.76      0.01         0.01
  8060c                       2.56      2.56      2.70      0.01         0.01
  8060d                       2.91      2.91      3.49      0.01         0.01
  8060e                       2.08      2.08      2.49      0.01         0.01
  8100e                       0.01      0.01      2.92      0.01         0.01
  8130e                       0.01      0.01      2.92      0.01         0.01
  
  
  ***************
  Pumping Summary
  ***************
  
  ---------------------------------------------------------------------------------------------------------
                                                  Min       Avg       Max     Total     Power    % Time Off
                        Percent   Number of      Flow      Flow      Flow    Volume     Usage    Pump Curve
  Pump                 Utilized   Start-Ups       CFS       CFS       CFS  10^6 gal     Kw-hr    Low   High
  ---------------------------------------------------------------------------------------------------------
  PUMP1@82309e-15009e      0.00           0      0.00      0.00      0.00     0.000      0.00    0.0    0.0
  
  
  ***************************
  Link Pollutant Load Summary
  ***************************
  
  ----------------------------------
                                 TSS
  Link                           lbs
  ----------------------------------
  1030e                        0.000
  1030                      1265.888
  1030a                     1234.024
  1030b                        0.000
  1030c                        0.000
  1030d                        0.000
  1570                       877.762
  1570a                        0.000
  1570b                        0.000
  1570c                        0.000
  1570d                        0.000
  1570e                        0.000
  1600                      1421.681
  1600a                     1421.471
  1600b                        0.000
  1600c                        0.000
  1600d                        0.000
  1600e                        0.000
  1602                      1543.639
  1602a                     1432.383
  1602b                        0.000
  1602c                        0.000
  1602d                        0.000
  1602e                        0.000
  1630                      2055.546
  1630a                     1419.993
  1630b                        0.000
  1630c                        0.000
  1630d                        0.000
  1630e                        0.000
  8040                      2628.300
  8040a                     1796.849
  8040b                        0.000
  8040c                        0.000
  8040d                        0.000
  8040e                        0.000
  8060                      1868.548
  8060a                     1681.234
  8060b                        0.000
  8060c                        0.000
  8060d                        0.000
  8060e                        0.000
  8100                      1154.100
  8100a                        0.000
  8100b                        0.000
  8100c                        0.000
  8100d                        0.000
  8100e                        0.000
  8130                      1068.853
  8130a                        0.000
  8130b                        0.000
  8130c                        0.000
  8130d                        0.000
  8130e                        0.000
  PUMP1@82309e-15009e          0.000
  OR1@82309d-82308d            0.000
  OR1@82309b-15009b            0.000
  One_Weir                     0.000
  

  Analysis begun on:  Tue Jun 23 20:39:36 2026
  Analysis ended on:  Tue Jun 23 20:39:36 2026
  Total elapsed time: < 1 sec