
  EPA STORM WATER MANAGEMENT MODEL - VERSION 5.2 (Build 5.2.4)
  ------------------------------------------------------------

  WARNING 04: minimum elevation drop used for Conduit CDT-17
  WARNING 04: minimum elevation drop used for Conduit CDT-21
  WARNING 04: minimum elevation drop used for Conduit SPI23800100
  WARNING 04: minimum elevation drop used for Conduit SPI23800200
  WARNING 04: minimum elevation drop used for Conduit SPI23900000
  WARNING 04: minimum elevation drop used for Conduit SPI23900100
  WARNING 04: minimum elevation drop used for Conduit SPI23900200
  WARNING 04: minimum elevation drop used for Conduit SPI23900300
  WARNING 04: minimum elevation drop used for Conduit SPI23900400
  WARNING 04: minimum elevation drop used for Conduit SPI23900500
  WARNING 04: minimum elevation drop used for Conduit SPI23900600
  WARNING 04: minimum elevation drop used for Conduit SPI23900700
  WARNING 04: minimum elevation drop used for Conduit SPI23900800
  WARNING 04: minimum elevation drop used for Conduit SPI23900900
  WARNING 04: minimum elevation drop used for Conduit SPI23901000
  WARNING 04: minimum elevation drop used for Conduit SPI23901100
  WARNING 04: minimum elevation drop used for Conduit SPI23901200
  WARNING 04: minimum elevation drop used for Conduit SPI23901500
  WARNING 04: minimum elevation drop used for Conduit SPI23901600
  WARNING 04: minimum elevation drop used for Conduit SPI23901700
  WARNING 04: minimum elevation drop used for Conduit SPI23901800
  WARNING 04: minimum elevation drop used for Conduit SPI24000400
  WARNING 04: minimum elevation drop used for Conduit SPI24000500
  WARNING 04: minimum elevation drop used for Conduit SPI24000600
  WARNING 04: minimum elevation drop used for Conduit SPI24100500
  WARNING 04: minimum elevation drop used for Conduit SPI24100600
  WARNING 04: minimum elevation drop used for Conduit SPI24100800
  WARNING 04: minimum elevation drop used for Conduit SPI24101300
  WARNING 04: minimum elevation drop used for Conduit SPI24101400
  WARNING 04: minimum elevation drop used for Conduit SPI24101500
  WARNING 04: minimum elevation drop used for Conduit SPI24108000
  WARNING 02: maximum depth increased for Node JCT-18
  WARNING 02: maximum depth increased for Node SFT23800100
  WARNING 02: maximum depth increased for Node SFT23800200
  WARNING 02: maximum depth increased for Node SFT23901000
  WARNING 02: maximum depth increased for Node SFT23901100
  WARNING 02: maximum depth increased for Node SFT24000500
  WARNING 02: maximum depth increased for Node SFT24000600
  WARNING 02: maximum depth increased for Node SFT24100500
  WARNING 02: maximum depth increased for Node SFT24101300
  
  ****************
  Analysis Options
  ****************
  Flow Units ............... GPM
  Process Models:
    Rainfall/Runoff ........ NO
    RDII ................... NO
    Snowmelt ............... NO
    Groundwater ............ NO
    Flow Routing ........... YES
    Ponding Allowed ........ NO
    Water Quality .......... NO
  Flow Routing Method ...... DYNWAVE
  Surcharge Method ......... EXTRAN
  Starting Date ............ 01/01/2002 00:00:00
  Ending Date .............. 01/04/2002 00:00:00
  Antecedent Dry Days ...... 5.0
  Report Time Step ......... 00:01:00
  Routing Time Step ........ 0.50 sec
  Variable Time Step ....... YES
  Maximum Trials ........... 8
  Number of Threads ........ 1
  Head Tolerance ........... 0.005000 ft
  
  
  **************************        Volume        Volume
  Flow Routing Continuity        acre-feet      10^6 gal
  **************************     ---------     ---------
  Dry Weather Inflow .......         0.000         0.000
  Wet Weather Inflow .......         0.000         0.000
  Groundwater Inflow .......         0.000         0.000
  RDII Inflow ..............         0.000         0.000
  External Inflow ..........         0.537         0.175
  External Outflow .........         0.442         0.144
  Flooding Loss ............         0.001         0.000
  Evaporation Loss .........         0.000         0.000
  Exfiltration Loss ........         0.000         0.000
  Initial Stored Volume ....         0.003         0.001
  Final Stored Volume ......         0.094         0.031
  Continuity Error (%) .....         0.586
  
  
  *************************
  Highest Continuity Errors
  *************************
  Node SFT24101400 (4.33%)
  Node SFT24101500 (3.69%)
  Node SFT24108000 (2.27%)
  Node SFT24000400 (1.28%)
  
  
  ***************************
  Time-Step Critical Elements
  ***************************
  None
  
  
  ********************************
  Highest Flow Instability Indexes
  ********************************
  Link SPI24100600 (48)
  Link SPI24100800 (44)
  Link SPI24101300 (41)
  Link CDT-21 (38)
  Link SPI24000500 (36)
  
  
  *********************************
  Most Frequent Nonconverging Nodes
  *********************************
  Node JCT-20 (59.83%)
  Node SFT23900700 (38.07%)
  Node SFT23900800 (37.32%)
  Node SFT23900900 (37.27%)
  Node SFT23900000 (36.81%)
  
  
  *************************
  Routing Time Step Summary
  *************************
  Minimum Time Step           :     0.50 sec
  Average Time Step           :     0.50 sec
  Maximum Time Step           :     0.50 sec
  % of Time in Steady State   :     0.00
  Average Iterations per Step :     6.61
  % of Steps Not Converging   :    59.83
  Time Step Frequencies       :
      0.500 -  0.500 sec      :   100.00 %
      0.500 -  0.500 sec      :     0.00 %
      0.500 -  0.500 sec      :     0.00 %
      0.500 -  0.500 sec      :     0.00 %
      0.500 -  0.500 sec      :     0.00 %
  
  
  ******************
  Node Depth Summary
  ******************
  
  ---------------------------------------------------------------------------------
                                 Average  Maximum  Maximum  Time of Max    Reported
                                   Depth    Depth      HGL   Occurrence   Max Depth
  Node                 Type         Feet     Feet     Feet  days hr:min        Feet
  ---------------------------------------------------------------------------------
  JCT-18               JUNCTION    95.84   127.57   136.57     1  10:40      127.22
  JCT-22               JUNCTION     5.08     5.09     7.44     0  00:22        5.09
  SFT23800100          JUNCTION   103.95   149.85   158.85     0  00:00      103.99
  SFT23800200          JUNCTION   103.95   191.70   200.70     0  00:00      104.10
  SFT23900000          JUNCTION   105.91   126.46   135.46     1  10:40      126.20
  SFT23900100          JUNCTION   104.52   118.71   127.71     0  00:15      118.49
  SFT23900200          JUNCTION   104.61   119.15   128.15     0  00:15      118.97
  SFT23900300          JUNCTION   104.94   120.85   129.85     0  00:15      120.64
  SFT23900400          JUNCTION   105.01   121.22   130.22     0  00:15      121.00
  SFT23900500          JUNCTION   105.13   121.89   130.89     0  00:15      121.77
  SFT23900600          JUNCTION   105.20   122.30   131.30     0  00:15      122.22
  SFT23900700          JUNCTION   105.70   125.07   134.07     0  00:16      125.06
  SFT23900800          JUNCTION   105.89   126.33   135.33     1  10:40      126.15
  SFT23900900          JUNCTION   105.90   126.41   135.41     1  10:40      126.19
  SFT23901000          JUNCTION   106.03   127.00   136.00     1  10:40      126.72
  SFT23901100          JUNCTION   106.09   127.26   136.26     1  10:40      126.96
  SFT23901200          JUNCTION   105.24   122.50   131.50     0  00:16      122.43
  SFT23901500          JUNCTION   104.50   118.62   127.62     0  00:15      118.40
  SFT23901600          JUNCTION   104.49   118.58   127.58     0  00:15      118.36
  SFT23901700          JUNCTION   104.49   118.54   127.54     0  00:15      118.32
  SFT23901800          JUNCTION   104.48   118.47   127.47     0  00:15      118.26
  SFT24000400          JUNCTION   103.83   201.00   210.00     0  00:09      112.89
  SFT24000500          JUNCTION   103.83   200.83   209.83     0  00:09      112.96
  SFT24000600          JUNCTION   103.83   200.83   209.83     0  00:09      112.94
  SFT24100500          JUNCTION   103.94   162.16   171.16     0  00:00      104.35
  SFT24100600          JUNCTION   103.94   164.07   173.07     0  00:00      104.34
  SFT24100700          JUNCTION   103.94   165.27   174.27     0  00:00      104.39
  SFT24100800          JUNCTION   103.94   164.50   173.50     0  00:00      104.45
  SFT24101300          JUNCTION   103.95   198.25   207.25     0  00:00      104.13
  SFT24101400          JUNCTION   103.86   201.00   210.00     0  00:04      107.81
  SFT24101500          JUNCTION   103.82   201.00   210.00     0  00:07      111.26
  SFT24108000          JUNCTION   103.92   201.00   210.00     0  00:01      105.02
  JCT-20               OUTFALL    103.95   103.95   112.95     0  00:00      103.95
  29A                  STORAGE      2.62     3.75     6.00     2  12:56        3.75
  
  
  *******************
  Node Inflow Summary
  *******************
  
  -------------------------------------------------------------------------------------------------
                                  Maximum  Maximum                  Lateral       Total        Flow
                                  Lateral    Total  Time of Max      Inflow      Inflow     Balance
                                   Inflow   Inflow   Occurrence      Volume      Volume       Error
  Node                 Type           GPM      GPM  days hr:min    10^6 gal    10^6 gal     Percent
  -------------------------------------------------------------------------------------------------
  JCT-18               JUNCTION      0.00   750.00     0  00:00           0       0.112      -0.120
  JCT-22               JUNCTION     26.00    26.00     0  00:00       0.112       0.112       0.428
  SFT23800100          JUNCTION      0.00 30077.67     0  00:00           0       0.207       0.118
  SFT23800200          JUNCTION      0.00 29919.34     0  00:00           0       0.207       0.210
  SFT23900000          JUNCTION      0.00   923.74     0  00:00           0       0.121      -0.012
  SFT23900100          JUNCTION      0.00   956.32     0  00:11           0       0.144       0.081
  SFT23900200          JUNCTION      0.00   810.49     0  00:11           0       0.144       0.313
  SFT23900300          JUNCTION      0.00   671.86     0  00:12           0       0.143       0.292
  SFT23900400          JUNCTION      0.00   671.44     0  00:12           0       0.142       0.136
  SFT23900500          JUNCTION      0.00   640.71     0  00:13           0       0.141       0.139
  SFT23900600          JUNCTION      0.00   619.53     0  00:13           0        0.14       0.073
  SFT23900700          JUNCTION      0.00   609.18     0  00:00           0       0.138       0.457
  SFT23900800          JUNCTION      0.00   789.78     0  00:00           0       0.136       0.096
  SFT23900900          JUNCTION      0.00   774.42     0  00:00           0       0.129      -0.061
  SFT23901000          JUNCTION      0.00   883.07     0  00:00           0       0.117       0.010
  SFT23901100          JUNCTION      0.00   809.12     0  00:00           0       0.114      -0.086
  SFT23901200          JUNCTION      0.00   609.66     0  00:13           0       0.139       0.389
  SFT23901500          JUNCTION      0.00  1006.54     0  00:10           0       0.147       0.030
  SFT23901600          JUNCTION      0.00   954.12     0  00:10           0       0.152       0.026
  SFT23901700          JUNCTION      0.00   875.86     0  00:10           0       0.159       0.030
  SFT23901800          JUNCTION      0.00   835.20     0  00:10           0       0.163       0.444
  SFT24000400          JUNCTION      0.00  2653.65     0  00:09           0       0.179       1.292
  SFT24000500          JUNCTION      0.00  2656.48     0  00:09           0       0.167       0.707
  SFT24000600          JUNCTION      0.00  2651.16     0  00:09           0       0.172       0.083
  SFT24100500          JUNCTION      0.00 19133.78     0  00:00           0       0.204       0.468
  SFT24100600          JUNCTION      0.00 14934.47     0  00:00           0       0.203       0.049
  SFT24100700          JUNCTION      0.00 16251.58     0  00:00           0       0.202       0.069
  SFT24100800          JUNCTION      0.00 16357.98     0  00:00           0       0.201       0.427
  SFT24101300          JUNCTION      0.00 29462.04     0  00:00           0       0.206       0.497
  SFT24101400          JUNCTION      0.00  3354.67     0  00:04           0       0.195       4.531
  SFT24101500          JUNCTION      0.00  2653.08     0  00:09           0       0.187       3.835
  SFT24108000          JUNCTION      0.00  7260.68     0  00:00           0         0.2       2.324
  JCT-20               OUTFALL       0.00 30077.67     0  00:00           0       0.207       0.000
  29A                  STORAGE       0.00    26.00     0  00:22           0       0.113       0.024
  
  
  **********************
  Node Surcharge Summary
  **********************
  
  Surcharging occurs when water rises above the top of the highest conduit.
  ---------------------------------------------------------------------
                                               Max. Height   Min. Depth
                                   Hours       Above Crown    Below Rim
  Node                 Type      Surcharged           Feet         Feet
  ---------------------------------------------------------------------
  JCT-18               JUNCTION       71.40        127.241        0.000
  SFT23800100          JUNCTION       72.00        148.520        0.000
  SFT23800200          JUNCTION       72.00        190.370        0.000
  SFT23900000          JUNCTION       71.75        125.956        0.000
  SFT23900100          JUNCTION       71.81        118.214        0.000
  SFT23900200          JUNCTION       71.80        118.647        0.000
  SFT23900300          JUNCTION       71.79        120.348        0.000
  SFT23900400          JUNCTION       71.79        120.721        0.000
  SFT23900500          JUNCTION       71.78        121.388        0.000
  SFT23900600          JUNCTION       71.78        121.802        0.000
  SFT23900700          JUNCTION       71.75        124.566        0.000
  SFT23900800          JUNCTION       71.75        125.832        0.000
  SFT23900900          JUNCTION       71.75        125.913        0.000
  SFT23901000          JUNCTION       71.80        126.667        0.000
  SFT23901100          JUNCTION       71.80        126.927        0.000
  SFT23901200          JUNCTION       71.76        121.997        0.000
  SFT23901500          JUNCTION       71.82        118.120        0.000
  SFT23901600          JUNCTION       71.82        118.078        0.000
  SFT23901700          JUNCTION       71.82        118.037        0.000
  SFT23901800          JUNCTION       71.82        117.966        0.000
  SFT24000400          JUNCTION       71.85        200.000        0.000
  SFT24000500          JUNCTION       71.85        200.000        0.000
  SFT24000600          JUNCTION       71.85        200.000        0.000
  SFT24100500          JUNCTION       72.00        160.831        0.000
  SFT24100600          JUNCTION       72.00        163.065        0.000
  SFT24100700          JUNCTION       72.00        164.271        0.000
  SFT24100800          JUNCTION       72.00        163.499        0.000
  SFT24101300          JUNCTION       72.00        196.913        0.000
  SFT24101400          JUNCTION       71.93        200.000        0.000
  SFT24101500          JUNCTION       71.87        200.000        0.000
  SFT24108000          JUNCTION       71.98        200.000        0.000
  
  
  *********************
  Node Flooding Summary
  *********************
  
  Flooding refers to all water that overflows a node, whether it ponds or not.
  --------------------------------------------------------------------------
                                                             Total   Maximum
                                 Maximum   Time of Max       Flood    Ponded
                        Hours       Rate    Occurrence      Volume     Depth
  Node                 Flooded       GPM   days hr:min    10^6 gal      Feet
  --------------------------------------------------------------------------
  SFT24000400             0.01     66.94      0  00:09       0.000   200.000
  SFT24000500             0.01    144.95      0  00:09       0.000   200.000
  SFT24000600             0.01    288.12      0  00:09       0.000   200.000
  SFT24101400             0.01   2885.01      0  00:04       0.000   200.000
  SFT24101500             0.01   1970.91      0  00:07       0.000   200.000
  SFT24108000             0.01   6251.07      0  00:01       0.000   200.000
  
  
  **********************
  Storage Volume Summary
  **********************
  
  ------------------------------------------------------------------------------------------------
                         Average    Avg   Evap  Exfil     Maximum    Max    Time of Max    Maximum
                          Volume   Pcnt   Pcnt   Pcnt      Volume   Pcnt     Occurrence    Outflow
  Storage Unit          1000 ft³   Full   Loss   Loss    1000 ft³   Full    days hr:min        GPM
  ------------------------------------------------------------------------------------------------
  29A                      0.074   21.7    0.0    0.0       0.106   31.1       2  12:56     750.00
  
  
  ***********************
  Outfall Loading Summary
  ***********************
  
  -----------------------------------------------------------
                         Flow       Avg       Max       Total
                         Freq      Flow      Flow      Volume
  Outfall Node           Pcnt       GPM       GPM    10^6 gal
  -----------------------------------------------------------
  JCT-20                97.46     49.05  30077.67       0.207
  -----------------------------------------------------------
  System                97.46     49.05  30077.67       0.207
  
  
  ********************
  Link Flow Summary
  ********************
  
  -----------------------------------------------------------------------------
                                 Maximum  Time of Max   Maximum    Max/    Max/
                                  |Flow|   Occurrence   |Veloc|    Full    Full
  Link                 Type          GPM  days hr:min    ft/sec    Flow   Depth
  -----------------------------------------------------------------------------
  CDT-17               CONDUIT    809.12     0  00:00     29.14  108.34    1.00
  CDT-19               CONDUIT     26.00     0  00:22      2.00    0.04    0.14
  CDT-21               CONDUIT  16251.58     0  00:00     46.10  171.07    1.00
  SPI23800100          CONDUIT  30077.67     0  00:00    >50.00  175.55    1.00
  SPI23800200          CONDUIT  29919.34     0  00:00    >50.00  261.15    1.00
  SPI23900000          CONDUIT    774.42     0  00:00     13.54   27.12    1.00
  SPI23900100          CONDUIT    956.32     0  00:11     14.29   68.02    1.00
  SPI23900200          CONDUIT    810.49     0  00:11     12.64  139.18    1.00
  SPI23900300          CONDUIT    671.86     0  00:12      8.99  227.59    1.00
  SPI23900400          CONDUIT    671.44     0  00:12     10.33   95.59    1.00
  SPI23900500          CONDUIT    640.71     0  00:13     10.40  124.01    1.00
  SPI23900600          CONDUIT    619.53     0  00:13     10.76   90.71    1.00
  SPI23900700          CONDUIT    507.71     0  00:15      6.45  200.71    1.00
  SPI23900800          CONDUIT    609.18     0  00:00     12.00  150.23    1.00
  SPI23900900          CONDUIT    789.78     0  00:00     13.82   35.30    1.00
  SPI23901000          CONDUIT    923.74     0  00:00     24.31  171.58    1.00
  SPI23901100          CONDUIT    883.07     0  00:00     27.31  112.81    1.00
  SPI23901200          CONDUIT    607.58     0  00:14     11.22   60.17    1.00
  SPI23901500          CONDUIT   1006.54     0  00:10     12.83   42.73    1.00
  SPI23901600          CONDUIT    954.12     0  00:10     10.83   35.91    1.00
  SPI23901700          CONDUIT    875.86     0  00:10      9.94   39.15    1.00
  SPI23901800          CONDUIT    835.20     0  00:10      9.69  414.67    1.00
  SPI24000400          CONDUIT   2653.65     0  00:09      9.19  192.32    1.00
  SPI24000500          CONDUIT   2656.48     0  00:09     16.72   36.02    1.00
  SPI24000600          CONDUIT   2651.16     0  00:09     10.83   41.18    1.00
  SPI24100500          CONDUIT  19133.78     0  00:00     33.28  286.22    1.00
  SPI24100600          CONDUIT  14934.47     0  00:00     42.37  105.31    1.00
  SPI24100800          CONDUIT  16357.98     0  00:00    >50.00  132.90    1.00
  SPI24101300          CONDUIT  29462.04     0  00:00    >50.00  139.47    1.00
  SPI24101400          CONDUIT   3354.67     0  00:04      9.64  324.12    1.00
  SPI24101500          CONDUIT   2653.08     0  00:09      7.74  287.74    1.00
  SPI24108000          CONDUIT   7260.68     0  00:00     23.59  300.47    1.00
  29A                  PUMP       750.00     0  00:00              1.00
  
  
  ***************************
  Flow Classification Summary
  ***************************
  
  -------------------------------------------------------------------------------------
                      Adjusted    ---------- Fraction of Time in Flow Class ---------- 
                       /Actual         Up    Down  Sub   Sup   Up    Down  Norm  Inlet 
  Conduit               Length    Dry  Dry   Dry   Crit  Crit  Crit  Crit  Ltd   Ctrl  
  -------------------------------------------------------------------------------------
  CDT-17                  1.00   0.00  0.00  0.00  1.00  0.00  0.00  0.00  0.00  0.00
  CDT-19                  1.00   0.00  0.00  0.00  0.00  0.00  0.00  1.00  0.00  0.00
  CDT-21                  1.00   0.00  0.00  0.00  1.00  0.00  0.00  0.00  0.00  0.00
  SPI23800100             1.00   0.00  0.00  0.00  1.00  0.00  0.00  0.00  0.00  0.00
  SPI23800200             1.00   0.00  0.00  0.00  1.00  0.00  0.00  0.00  0.00  0.00
  SPI23900000             1.00   0.00  0.00  0.00  1.00  0.00  0.00  0.00  0.00  0.00
  SPI23900100             1.00   0.00  0.00  0.00  1.00  0.00  0.00  0.00  0.00  0.00
  SPI23900200             1.00   0.00  0.00  0.00  1.00  0.00  0.00  0.00  0.00  0.00
  SPI23900300             1.00   0.00  0.00  0.00  1.00  0.00  0.00  0.00  0.00  0.00
  SPI23900400             1.00   0.00  0.00  0.00  1.00  0.00  0.00  0.00  0.00  0.00
  SPI23900500             1.00   0.00  0.00  0.00  1.00  0.00  0.00  0.00  0.00  0.00
  SPI23900600             1.00   0.00  0.00  0.00  1.00  0.00  0.00  0.00  0.00  0.00
  SPI23900700             1.00   0.00  0.00  0.00  1.00  0.00  0.00  0.00  0.00  0.00
  SPI23900800             1.00   0.00  0.00  0.00  1.00  0.00  0.00  0.00  0.00  0.00
  SPI23900900             1.00   0.00  0.00  0.00  1.00  0.00  0.00  0.00  0.00  0.00
  SPI23901000             1.00   0.00  0.00  0.00  1.00  0.00  0.00  0.00  0.00  0.00
  SPI23901100             1.00   0.00  0.00  0.00  1.00  0.00  0.00  0.00  0.00  0.00
  SPI23901200             1.00   0.00  0.00  0.00  1.00  0.00  0.00  0.00  0.00  0.00
  SPI23901500             1.00   0.00  0.00  0.00  1.00  0.00  0.00  0.00  0.00  0.00
  SPI23901600             1.00   0.00  0.00  0.00  1.00  0.00  0.00  0.00  0.00  0.00
  SPI23901700             1.00   0.00  0.00  0.00  1.00  0.00  0.00  0.00  0.00  0.00
  SPI23901800             1.00   0.00  0.00  0.00  1.00  0.00  0.00  0.00  0.00  0.00
  SPI24000400             1.00   0.00  0.00  0.00  1.00  0.00  0.00  0.00  0.00  0.00
  SPI24000500             1.00   0.00  0.00  0.00  1.00  0.00  0.00  0.00  0.00  0.00
  SPI24000600             1.00   0.00  0.00  0.00  1.00  0.00  0.00  0.00  0.00  0.00
  SPI24100500             1.00   0.00  0.00  0.00  1.00  0.00  0.00  0.00  0.00  0.00
  SPI24100600             1.00   0.00  0.00  0.00  1.00  0.00  0.00  0.00  0.00  0.00
  SPI24100800             1.00   0.00  0.00  0.00  1.00  0.00  0.00  0.00  0.00  0.00
  SPI24101300             1.00   0.00  0.00  0.00  1.00  0.00  0.00  0.00  0.00  0.00
  SPI24101400             1.00   0.00  0.00  0.00  1.00  0.00  0.00  0.00  0.00  0.00
  SPI24101500             1.00   0.00  0.00  0.00  1.00  0.00  0.00  0.00  0.00  0.00
  SPI24108000             1.00   0.00  0.00  0.00  1.00  0.00  0.00  0.00  0.00  0.00
  
  
  *************************
  Conduit Surcharge Summary
  *************************
  
  ----------------------------------------------------------------------------
                                                           Hours        Hours 
                         --------- Hours Full --------   Above Full   Capacity
  Conduit                Both Ends  Upstream  Dnstream   Normal Flow   Limited
  ----------------------------------------------------------------------------
  CDT-17                     71.40     71.40     71.80     10.06         9.95
  CDT-21                     72.00     72.00     72.00     11.47        33.71
  SPI23800100                72.00     72.00     72.00      9.84        29.78
  SPI23800200                72.00     72.00     72.00     10.87        34.52
  SPI23900000                71.75     71.75     71.75     10.94        27.57
  SPI23900100                71.81     71.81     71.82     19.11        37.80
  SPI23900200                71.80     71.80     71.81     30.58        39.52
  SPI23900300                71.79     71.79     71.80     49.45        40.30
  SPI23900400                71.79     71.79     71.79     26.75        39.22
  SPI23900500                71.78     71.78     71.79     32.58        39.71
  SPI23900600                71.78     71.78     71.78     26.59        39.23
  SPI23900700                71.75     71.75     71.76     50.26        40.28
  SPI23900800                71.74     71.75     71.75     37.58        39.91
  SPI23900900                71.75     71.75     71.75     13.59        31.93
  SPI23901000                71.80     71.80     71.80     13.97        32.72
  SPI23901100                71.80     71.80     71.80     10.83        26.66
  SPI23901200                71.76     71.76     71.78     20.79        38.15
  SPI23901500                71.82     71.82     71.82     15.67        36.72
  SPI23901600                71.82     71.82     71.82     16.17        36.16
  SPI23901700                71.82     71.82     71.82     18.62        37.51
  SPI23901800                71.82     71.82     71.85     61.30        40.55
  SPI24000400                71.85     71.85     71.87     27.42        39.44
  SPI24000500                71.85     71.85     71.85     11.84        35.30
  SPI24000600                71.85     71.85     71.85     12.57        36.24
  SPI24100500                72.00     72.00     72.00     12.74        37.03
  SPI24100600                72.00     72.00     72.00     10.06        33.63
  SPI24100800                72.00     72.00     72.00     10.59        34.03
  SPI24101300                72.00     72.00     72.00      1.22        32.86
  SPI24101400                71.93     71.93     71.98     34.24        39.58
  SPI24101500                71.87     71.87     71.93     37.91        39.61
  SPI24108000                71.98     71.98     72.00     20.26        38.79
  
  
  ***************
  Pumping Summary
  ***************
  
  ---------------------------------------------------------------------------------------------------------
                                                  Min       Avg       Max     Total     Power    % Time Off
                        Percent   Number of      Flow      Flow      Flow    Volume     Usage    Pump Curve
  Pump                 Utilized   Start-Ups       GPM       GPM       GPM  10^6 gal     Kw-hr    Low   High
  ---------------------------------------------------------------------------------------------------------
  29A                     13.74         203      0.00    189.11    750.00     0.112     44.86    0.0    0.1
  

  Analysis begun on:  Tue Jun 23 20:39:36 2026
  Analysis ended on:  Tue Jun 23 20:39:48 2026
  Total elapsed time: 00:00:12