
  EPA STORM WATER MANAGEMENT MODEL - VERSION 5.2 (Build 5.2.4)
  ------------------------------------------------------------

  WARNING 04: minimum elevation drop used for Conduit 5A_FORCEMAIN_D
  WARNING 04: minimum elevation drop used for Conduit INTERCONNECT
  WARNING 02: maximum depth increased for Node 5A_DUMMY
  WARNING 02: maximum depth increased for Node DUMMY_FOR_GRAVITY
  WARNING 02: maximum depth increased for Node FM_SPLIT
  
  ****************
  Analysis Options
  ****************
  Flow Units ............... MGD
  Process Models:
    Rainfall/Runoff ........ YES
    RDII ................... YES
    Snowmelt ............... NO
    Groundwater ............ NO
    Flow Routing ........... YES
    Ponding Allowed ........ NO
    Water Quality .......... NO
  Flow Routing Method ...... DYNWAVE
  Surcharge Method ......... EXTRAN
  Starting Date ............ 12/09/2012 00:00:00
  Ending Date .............. 12/30/2012 00:00:00
  Antecedent Dry Days ...... 5.0
  Report Time Step ......... 00:15:00
  Routing Time Step ........ 1.00 sec
  Variable Time Step ....... YES
  Maximum Trials ........... 8
  Number of Threads ........ 1
  Head Tolerance ........... 0.001000 ft
  
  
  **********************           Volume        Volume
  Rainfall Dependent I/I        acre-feet      10^6 gal
  **********************        ---------     ---------
  Sewershed Rainfall ......       333.634       108.720
  RDII Produced ...........        20.681         6.739
  RDII Ratio ..............         0.062
  
  
  **************************        Volume        Volume
  Flow Routing Continuity        acre-feet      10^6 gal
  **************************     ---------     ---------
  Dry Weather Inflow .......         0.000         0.000
  Wet Weather Inflow .......         0.000         0.000
  Groundwater Inflow .......         0.000         0.000
  RDII Inflow ..............        20.679         6.739
  External Inflow ..........         0.000         0.000
  External Outflow .........        22.782         7.424
  Flooding Loss ............         5.280         1.720
  Evaporation Loss .........         0.000         0.000
  Exfiltration Loss ........         0.000         0.000
  Initial Stored Volume ....         0.000         0.000
  Final Stored Volume ......         0.236         0.077
  Continuity Error (%) .....       -36.843
  
  
  *************************
  Highest Continuity Errors
  *************************
  Node 5A_DUMMY (-39.58%)
  
  
  ***************************
  Time-Step Critical Elements
  ***************************
  None
  
  
  ********************************
  Highest Flow Instability Indexes
  ********************************
  Link 5A_FORCEMAIN_D (3)
  Link INTERCONNECT (2)
  Link 5A_PUMP_1 (2)
  Link 5A_FORCEMAIN_A (1)
  
  
  *********************************
  Most Frequent Nonconverging Nodes
  *********************************
  Node 5A_OUTFALL (30.13%)
  Node WWTP (30.13%)
  Node INTERCONNECT2 (27.85%)
  Node RBW_FM_CONNECT (27.72%)
  Node INTERCONNECT1 (27.49%)
  
  
  *************************
  Routing Time Step Summary
  *************************
  Minimum Time Step           :     0.03 sec
  Average Time Step           :     1.00 sec
  Maximum Time Step           :     1.00 sec
  % of Time in Steady State   :     0.00
  Average Iterations per Step :     4.05
  % of Steps Not Converging   :    30.13
  Time Step Frequencies       :
      1.000 -  0.251 sec      :    99.99 %
      0.251 -  0.063 sec      :     0.01 %
      0.063 -  0.016 sec      :     0.00 %
      0.016 -  0.004 sec      :     0.00 %
      0.004 -  0.001 sec      :     0.00 %
  
  
  ******************
  Node Depth Summary
  ******************
  
  ---------------------------------------------------------------------------------
                                 Average  Maximum  Maximum  Time of Max    Reported
                                   Depth    Depth      HGL   Occurrence   Max Depth
  Node                 Type         Feet     Feet     Feet  days hr:min        Feet
  ---------------------------------------------------------------------------------
  5A_DUMMY             JUNCTION     6.93   101.33   817.05     0  18:30      101.33
  DUMMY_FOR_GRAVITY    JUNCTION     0.11     0.67   735.67     8  23:28        0.67
  FM_SPLIT             JUNCTION     7.80    37.93   751.93    12  03:02       26.03
  FORCEMAIN_RECONNECT  JUNCTION     9.79    18.21   729.92     8  23:26       17.40
  INTERCONNECT1        JUNCTION     8.71    30.63   743.63     8  23:26       29.03
  INTERCONNECT2        JUNCTION     8.71    30.40   743.40     8  23:26       28.81
  K-1A                 JUNCTION     0.26     1.45   846.07     8  23:10        1.42
  K-25.1               JUNCTION     2.10     3.22   843.22     0  17:06        3.13
  K-25.2               JUNCTION     0.09     0.37   844.15     8  23:16        0.37
  MC-1                 JUNCTION     0.37     1.50   706.10     8  22:52        1.48
  MC-2                 JUNCTION     0.04     0.26   711.01     8  22:55        0.26
  MC-3                 JUNCTION     0.04     0.31   711.11     8  22:50        0.31
  MC-4                 JUNCTION     0.03     0.19   711.42     8  22:50        0.19
  N-1                  JUNCTION     0.13     0.73   710.76     8  23:20        0.73
  N-10                 JUNCTION     0.12     0.57   746.57     8  23:17        0.57
  N-11                 JUNCTION     0.11     0.49   763.49     8  23:16        0.49
  N-12                 JUNCTION     0.11     0.49   776.49     8  23:16        0.49
  N-13                 JUNCTION     0.14     0.65   782.65     8  23:15        0.65
  N-13.1               JUNCTION     0.01     0.09   784.09     8  18:42        0.09
  N-13.2               JUNCTION     0.01     0.10   786.10     8  18:40        0.10
  N-14                 JUNCTION     0.12     0.56   786.56     8  23:15        0.56
  N-15                 JUNCTION     0.11     0.49   791.99     8  23:14        0.49
  N-16                 JUNCTION     0.17     0.87   793.37     8  23:14        0.87
  N-17                 JUNCTION     0.10     0.47   804.77     8  23:14        0.47
  N-18                 JUNCTION     0.18     0.90   806.40     8  23:13        0.90
  N-19                 JUNCTION     0.13     0.58   811.58     8  23:13        0.58
  N-2                  JUNCTION     0.21     0.98   711.48     8  23:20        0.98
  N-20                 JUNCTION     0.11     0.50   818.93     8  23:12        0.49
  N-21                 JUNCTION     0.11     0.55   823.05     8  23:12        0.54
  N-22                 JUNCTION     0.19     1.01   824.51     8  23:12        1.01
  N-23                 JUNCTION     0.13     0.63   829.63     8  23:11        0.62
  N-24                 JUNCTION     0.12     0.55   839.55     8  23:11        0.55
  N-25                 JUNCTION     0.13     0.62   842.62     8  23:11        0.62
  N-26                 JUNCTION     0.04     0.34   860.34    19  09:05        0.28
  N-27                 JUNCTION     0.04     0.35   875.35    19  09:04        0.29
  N-28                 JUNCTION     0.06     1.68   877.68    19  09:00        0.57
  N-29                 JUNCTION     0.04     0.32   883.32    19  09:05        0.26
  N-3                  JUNCTION     0.20     0.99   712.09     8  23:19        0.99
  N-30                 JUNCTION     0.05     0.53   886.53    19  09:05        0.40
  N-31                 JUNCTION     0.05     0.43   897.43    19  09:05        0.34
  N-4                  JUNCTION     0.19     0.97   712.77     8  23:18        0.97
  N-5                  JUNCTION     0.09     0.41   726.41     8  23:18        0.41
  N-6                  JUNCTION     0.10     0.47   733.47     8  23:18        0.47
  N-7                  JUNCTION     0.14     0.70   735.70     8  23:17        0.70
  N-8                  JUNCTION     0.12     0.55   739.05     8  23:17        0.55
  N-9                  JUNCTION     0.12     0.55   743.55     8  23:17        0.55
  RBW_DUMMY            JUNCTION     7.74    79.64   779.64     0  19:25       52.99
  RBW_FM_CONNECT       JUNCTION     8.72    30.83   743.83     8  23:26       29.24
  S-1                  JUNCTION     0.00     0.08   792.98    19  09:09        0.07
  S-2                  JUNCTION     0.01     0.14   797.50    19  09:07        0.14
  S-3                  JUNCTION     0.00     0.00   812.10     0  00:00        0.00
  5A_OUTFALL           OUTFALL      0.00     0.00   710.37     0  00:00        0.00
  WWTP                 OUTFALL      0.10     0.61   722.11     8  23:27        0.55
  5A_WETWELL           STORAGE      3.60     4.27   705.60     8  23:31        4.23
  RBW_WETWELL          STORAGE      5.50     8.01   706.09     8  22:52        7.99
  
  
  *******************
  Node Inflow Summary
  *******************
  
  -------------------------------------------------------------------------------------------------
                                  Maximum  Maximum                  Lateral       Total        Flow
                                  Lateral    Total  Time of Max      Inflow      Inflow     Balance
                                   Inflow   Inflow   Occurrence      Volume      Volume       Error
  Node                 Type           MGD      MGD  days hr:min    10^6 gal    10^6 gal     Percent
  -------------------------------------------------------------------------------------------------
  5A_DUMMY             JUNCTION     0.000    4.752     0  17:37           0        6.28     -28.358
  DUMMY_FOR_GRAVITY    JUNCTION     0.000    4.947    19  09:26           0         7.1       0.024
  FM_SPLIT             JUNCTION     0.000    3.726     8  23:28           0        7.09       0.217
  FORCEMAIN_RECONNECT  JUNCTION     0.000    5.002     8  23:27           0        7.44       0.259
  INTERCONNECT1        JUNCTION     0.000    3.021     8  23:27           0        2.69       0.361
  INTERCONNECT2        JUNCTION     0.000    3.159     8  23:27           0        5.13       0.316
  K-1A                 JUNCTION     2.148    2.148     8  23:15        5.07        5.07       0.006
  K-25.1               JUNCTION     0.000    2.148     8  23:16           0        5.07       0.013
  K-25.2               JUNCTION     0.000    2.150     8  23:11           0        5.07       0.003
  MC-1                 JUNCTION     0.000    0.283     8  22:55           0       0.394       0.003
  MC-2                 JUNCTION     0.000    0.283     8  22:50           0       0.392       0.006
  MC-3                 JUNCTION     0.000    0.283     8  22:50           0       0.392       0.002
  MC-4                 JUNCTION     0.283    0.283     8  22:50       0.392       0.392       0.001
  N-1                  JUNCTION     0.000    2.920     8  23:20           0        6.29       0.001
  N-10                 JUNCTION     0.000    2.922     8  23:16           0        6.29       0.004
  N-11                 JUNCTION     0.000    2.922     8  23:16           0        6.29       0.003
  N-12                 JUNCTION     0.000    2.923     8  23:15           0        6.29       0.003
  N-13                 JUNCTION     0.000    2.923     8  23:15           0        6.29       0.003
  N-13.1               JUNCTION     0.000    0.054     8  18:41           0      0.0393      -0.006
  N-13.2               JUNCTION     0.054    0.054     8  18:40      0.0393      0.0393       0.002
  N-14                 JUNCTION     0.000    2.905     8  23:14           0        6.25       0.001
  N-15                 JUNCTION     0.000    2.905     8  23:14           0        6.25       0.001
  N-16                 JUNCTION     0.000    2.906     8  23:14           0        6.25       0.004
  N-17                 JUNCTION     0.000    2.906     8  23:13           0        6.25       0.001
  N-18                 JUNCTION     0.000    2.909     8  23:13           0        6.25       0.004
  N-19                 JUNCTION     0.000    2.910     8  23:12           0        6.25       0.002
  N-2                  JUNCTION     0.000    2.920     8  23:19           0        6.29       0.004
  N-20                 JUNCTION     0.000    2.911     8  23:12           0        6.25       0.001
  N-21                 JUNCTION     0.000    2.911     8  23:12           0        6.25       0.001
  N-22                 JUNCTION     0.000    2.915     8  23:11           0        6.25       0.004
  N-23                 JUNCTION     0.000    2.920     8  23:11           0        6.25       0.003
  N-24                 JUNCTION     0.000    2.924     8  23:11           0        6.25       0.001
  N-25                 JUNCTION     0.000    2.927     8  23:10           0        6.25       0.002
  N-26                 JUNCTION     0.000    1.226    19  09:04           0        1.18      -0.002
  N-27                 JUNCTION     0.000    1.226    19  09:04           0        1.18      -0.000
  N-28                 JUNCTION     0.000    1.226    19  09:05           0        1.18       0.001
  N-29                 JUNCTION     0.000    1.226    19  09:05           0        1.18       0.001
  N-3                  JUNCTION     0.000    2.921     8  23:19           0        6.29       0.004
  N-30                 JUNCTION     0.000    1.226    19  09:04           0        1.18       0.005
  N-31                 JUNCTION     1.226    1.226    19  09:00        1.18        1.18      -0.002
  N-4                  JUNCTION     0.000    2.921     8  23:18           0        6.29       0.003
  N-5                  JUNCTION     0.000    2.921     8  23:18           0        6.29       0.001
  N-6                  JUNCTION     0.000    2.921     8  23:18           0        6.29       0.001
  N-7                  JUNCTION     0.000    2.921     8  23:17           0        6.29       0.002
  N-8                  JUNCTION     0.000    2.921     8  23:17           0        6.29       0.002
  N-9                  JUNCTION     0.000    2.921     8  23:17           0        6.29       0.001
  RBW_DUMMY            JUNCTION     0.000    2.304     0  19:25           0       0.391      -0.713
  RBW_FM_CONNECT       JUNCTION     0.000    3.110     8  23:26           0        2.65       0.185
  S-1                  JUNCTION     0.000    0.120    19  09:07           0      0.0525      -0.202
  S-2                  JUNCTION     0.120    0.120    19  09:05      0.0525      0.0525      -0.011
  S-3                  JUNCTION     0.000    0.000     0  00:00           0           0       0.000 gal
  5A_OUTFALL           OUTFALL      0.000    0.000     0  00:00           0           0       0.000 gal
  WWTP                 OUTFALL      0.000    4.993     8  23:27           0        7.42       0.000
  5A_WETWELL           STORAGE      0.000    2.920     8  23:20           0        6.29       0.123
  RBW_WETWELL          STORAGE      0.000    1.032     8  22:52           0       0.394       0.233
  
  
  **********************
  Node Surcharge Summary
  **********************
  
  Surcharging occurs when water rises above the top of the highest conduit.
  ---------------------------------------------------------------------
                                               Max. Height   Min. Depth
                                   Hours       Above Crown    Below Rim
  Node                 Type      Surcharged           Feet         Feet
  ---------------------------------------------------------------------
  5A_DUMMY             JUNCTION      102.35        100.000        0.000
  FM_SPLIT             JUNCTION      480.24         36.597        0.000
  FORCEMAIN_RECONNECT  JUNCTION      483.65         16.878        0.000
  INTERCONNECT1        JUNCTION      482.38         29.625        0.000
  INTERCONNECT2        JUNCTION      482.04         29.067        0.000
  K-1A                 JUNCTION        0.34          0.114       14.763
  K-25.1               JUNCTION      486.89          1.969        4.781
  N-28                 JUNCTION        0.17          1.012       12.991
  RBW_DUMMY            JUNCTION      468.67         78.973        0.000
  RBW_FM_CONNECT       JUNCTION      482.36         29.826        0.000
  
  
  *********************
  Node Flooding Summary
  *********************
  
  Flooding refers to all water that overflows a node, whether it ponds or not.
  --------------------------------------------------------------------------
                                                             Total   Maximum
                                 Maximum   Time of Max       Flood    Ponded
                        Hours       Rate    Occurrence      Volume     Depth
  Node                 Flooded       MGD   days hr:min    10^6 gal      Feet
  --------------------------------------------------------------------------
  5A_DUMMY               20.32     4.718      2  01:42       1.720   100.000
  
  
  **********************
  Storage Volume Summary
  **********************
  
  ------------------------------------------------------------------------------------------------
                         Average    Avg   Evap  Exfil     Maximum    Max    Time of Max    Maximum
                          Volume   Pcnt   Pcnt   Pcnt      Volume   Pcnt     Occurrence    Outflow
  Storage Unit          1000 ftł   Full   Loss   Loss    1000 ftł   Full    days hr:min        MGD
  ------------------------------------------------------------------------------------------------
  5A_WETWELL               0.202   17.3    0.0    0.0       0.247   21.1       8  23:31      4.752
  RBW_WETWELL              0.194   30.4    0.0    0.0       0.290   45.5       8  22:52      2.304
  
  
  ***********************
  Outfall Loading Summary
  ***********************
  
  -----------------------------------------------------------
                         Flow       Avg       Max       Total
                         Freq      Flow      Flow      Volume
  Outfall Node           Pcnt       MGD       MGD    10^6 gal
  -----------------------------------------------------------
  5A_OUTFALL             0.00     0.000     0.000       0.000
  WWTP                  80.38     0.442     4.993       7.423
  -----------------------------------------------------------
  System                40.19     0.442     4.993       7.423
  
  
  ********************
  Link Flow Summary
  ********************
  
  -----------------------------------------------------------------------------
                                 Maximum  Time of Max   Maximum    Max/    Max/
                                  |Flow|   Occurrence   |Veloc|    Full    Full
  Link                 Type          MGD  days hr:min    ft/sec    Flow   Depth
  -----------------------------------------------------------------------------
  5A_FORCEMAIN_A       CONDUIT     4.866     8  23:28      8.03    1.09    0.75
  5A_FORCEMAIN_B       CONDUIT     3.726     8  23:28      5.11    0.38    0.75
  5A_FORCEMAIN_C       CONDUIT     1.209     8  23:28      2.38    1.32    1.00
  5A_FORCEMAIN_D       CONDUIT     3.021     8  23:27      5.95   15.45    1.00
  5A_FORCEMAIN_E       CONDUIT     1.658     8  23:27      3.27    2.37    1.00
  5A_FORCEMAIN_PARALLEL_A CONDUIT     2.506     8  23:28      2.78    1.31    1.00
  5A_FORCEMAIN_PARALLEL_B CONDUIT     3.344     8  23:27      3.71    2.28    1.00
  FM_TO_RIVERVIEW      CONDUIT     4.993     8  23:27     11.43    0.68    0.80
  INTERCONNECT         CONDUIT     1.981     0  22:18      3.90   10.98    1.00
  K-1A_K-25.2          CONDUIT     2.150     8  23:11      3.58    1.06    0.64
  K-25.1-N-25          CONDUIT     2.148     8  23:16      3.39    0.34    0.75
  K-25.2-K-25.1        CONDUIT     2.148     8  23:16      3.95    0.19    0.65
  MC-1-RBW_WETWELL     CONDUIT     1.032     8  22:52      2.93    0.95    1.00
  MC-2-MC-1            CONDUIT     0.283     8  22:55      2.98    0.21    0.31
  MC-3-MC-2            CONDUIT     0.283     8  22:50      2.65    0.28    0.34
  MC-4-MC-3            CONDUIT     0.283     8  22:50      3.17    0.12    0.30
  N-10-N-9             CONDUIT     2.921     8  23:17      7.47    0.30    0.37
  N-11-N-10            CONDUIT     2.922     8  23:16      8.11    0.23    0.35
  N-12-N-11            CONDUIT     2.922     8  23:16      9.03    0.23    0.33
  N-13-N-12            CONDUIT     2.923     8  23:15      7.30    0.35    0.38
  N-13.1-N-13          CONDUIT     0.054     8  18:42      1.44    0.04    0.53
  N-13.2-N-13.1        CONDUIT     0.054     8  18:41      2.81    0.05    0.14
  N-14-N-13            CONDUIT     2.905     8  23:15      6.75    0.29    0.40
  N-15-N-14            CONDUIT     2.905     8  23:14      8.20    0.23    0.35
  N-16-N-15            CONDUIT     2.905     8  23:14      5.76    0.50    0.45
  N-17-N-16            CONDUIT     2.906     8  23:14      5.86    0.21    0.45
  N-18-N-17            CONDUIT     2.906     8  23:13      5.73    0.52    0.46
  N-19-N-18            CONDUIT     2.909     8  23:13      5.18    0.32    0.49
  N-2-N-1              CONDUIT     2.920     8  23:20      4.32    0.73    0.57
  N-20-N-19            CONDUIT     2.910     8  23:12      7.85    0.24    0.36
  N-21-N-20            CONDUIT     2.911     8  23:12      8.90    0.33    0.39
  N-22-N-21            CONDUIT     2.911     8  23:12      5.59    0.84    0.62
  N-23-N-22            CONDUIT     2.915     8  23:11      5.29    0.50    0.66
  N-24-N-23            CONDUIT     2.920     8  23:11      7.95    0.40    0.47
  N-25-N-24            CONDUIT     2.924     8  23:11      7.97    0.46    0.47
  N-26-N-25            CONDUIT     1.226    19  09:05      8.84    0.51    0.67
  N-27-N-26            CONDUIT     1.226    19  09:04     10.49    0.53    0.52
  N-28-N-27            CONDUIT     1.226    19  09:04      6.64    1.05    0.76
  N-29-N-28            CONDUIT     1.226    19  09:05      6.88    0.45    0.74
  N-3-N-2              CONDUIT     2.920     8  23:19      3.66    0.77    0.66
  N-30-N-29            CONDUIT     1.226    19  09:05      8.13    0.74    0.63
  N-31-N-30            CONDUIT     1.226    19  09:04      7.66    0.74    0.72
  N-4-N-3              CONDUIT     2.921     8  23:19      3.69    0.75    0.65
  N-5-N-4              CONDUIT     2.921     8  23:18      6.15    0.16    0.46
  N-6-N-5              CONDUIT     2.921     8  23:18     10.53    0.19    0.29
  N-7-N-6              CONDUIT     2.921     8  23:18      7.08    0.35    0.39
  N-8-N-7              CONDUIT     2.921     8  23:17      6.50    0.28    0.42
  N-9-N-8              CONDUIT     2.921     8  23:17      7.71    0.29    0.37
  N1-PS                CONDUIT     2.920     8  23:20      6.84    0.35    0.48
  RBW_FORCEMAIN        CONDUIT     2.317     0  22:18     12.41    0.91    1.00
  S-1-JCT-FM2          CONDUIT     0.120    19  09:09      5.75    0.01    0.27
  S-2-S-1              CONDUIT     0.120    19  09:07      4.99    0.08    0.16
  S-3-S-2              CONDUIT     0.000     0  00:00      0.00    0.00    0.11
  5A_PUMP_1            PUMP        4.752     0  17:37              1.00
  RBW_PUMP1            PUMP        2.304     0  19:25              1.00
  5A_OUTFALL           ORIFICE     0.000     0  00:00                      0.00
  
  
  ***************************
  Flow Classification Summary
  ***************************
  
  -------------------------------------------------------------------------------------
                      Adjusted    ---------- Fraction of Time in Flow Class ---------- 
                       /Actual         Up    Down  Sub   Sup   Up    Down  Norm  Inlet 
  Conduit               Length    Dry  Dry   Dry   Crit  Crit  Crit  Crit  Ltd   Ctrl  
  -------------------------------------------------------------------------------------
  5A_FORCEMAIN_A          1.00   0.03  0.02  0.00  0.90  0.05  0.00  0.00  0.63  0.00
  5A_FORCEMAIN_B          1.00   0.03  0.02  0.00  0.93  0.01  0.00  0.00  0.96  0.00
  5A_FORCEMAIN_C          1.00   0.03  0.00  0.00  0.97  0.00  0.00  0.00  0.01  0.00
  5A_FORCEMAIN_D          1.00   0.03  0.00  0.00  0.97  0.00  0.00  0.00  0.00  0.00
  5A_FORCEMAIN_E          1.00   0.03  0.00  0.00  0.97  0.00  0.00  0.00  0.00  0.00
  5A_FORCEMAIN_PARALLEL_A    1.00   0.03  0.00  0.00  0.97  0.00  0.00  0.00  0.01  0.00
  5A_FORCEMAIN_PARALLEL_B    1.00   0.03  0.00  0.00  0.97  0.00  0.00  0.00  0.00  0.00
  FM_TO_RIVERVIEW         1.00   0.03  0.03  0.00  0.85  0.08  0.00  0.00  0.01  0.00
  INTERCONNECT            1.00   0.03  0.00  0.00  0.97  0.00  0.00  0.00  0.00  0.00
  K-1A_K-25.2             1.00   0.03  0.00  0.00  0.97  0.00  0.00  0.00  0.00  0.00
  K-25.1-N-25             1.00   0.03  0.00  0.00  0.97  0.00  0.00  0.00  0.00  0.00
  K-25.2-K-25.1           1.00   0.03  0.12  0.00  0.84  0.00  0.00  0.00  0.97  0.00
  MC-1-RBW_WETWELL        1.20   0.03  0.00  0.00  0.43  0.00  0.00  0.53  0.00  0.00
  MC-2-MC-1               1.00   0.03  0.00  0.00  0.00  0.00  0.00  0.97  0.00  0.00
  MC-3-MC-2               1.00   0.03  0.00  0.00  0.87  0.10  0.00  0.00  0.47  0.00
  MC-4-MC-3               1.00   0.03  0.00  0.00  0.45  0.51  0.00  0.00  0.97  0.00
  N-10-N-9                1.00   0.03  0.00  0.00  0.13  0.83  0.00  0.00  0.13  0.00
  N-11-N-10               1.00   0.03  0.00  0.00  0.13  0.84  0.00  0.00  0.84  0.00
  N-12-N-11               1.00   0.03  0.00  0.00  0.12  0.84  0.00  0.00  0.18  0.00
  N-13-N-12               1.00   0.03  0.00  0.00  0.13  0.83  0.00  0.00  0.12  0.00
  N-13.1-N-13             1.00   0.03  0.61  0.00  0.36  0.00  0.00  0.00  0.96  0.00
  N-13.2-N-13.1           1.00   0.03  0.00  0.00  0.62  0.34  0.00  0.00  0.62  0.00
  N-14-N-13               1.00   0.03  0.00  0.00  0.14  0.82  0.00  0.00  0.96  0.00
  N-15-N-14               1.00   0.03  0.00  0.00  0.13  0.84  0.00  0.00  0.84  0.00
  N-16-N-15               1.00   0.03  0.00  0.00  0.15  0.81  0.00  0.00  0.12  0.00
  N-17-N-16               1.00   0.03  0.12  0.00  0.03  0.81  0.00  0.00  0.96  0.00
  N-18-N-17               1.00   0.03  0.00  0.00  0.15  0.81  0.00  0.00  0.00  0.00
  N-19-N-18               1.00   0.03  0.00  0.00  0.24  0.73  0.00  0.00  0.96  0.00
  N-2-N-1                 1.00   0.03  0.12  0.00  0.42  0.43  0.00  0.00  0.12  0.00
  N-20-N-19               1.00   0.03  0.00  0.00  0.13  0.83  0.00  0.00  0.84  0.00
  N-21-N-20               1.00   0.03  0.00  0.00  0.12  0.84  0.00  0.00  0.12  0.00
  N-22-N-21               1.00   0.03  0.00  0.00  0.15  0.82  0.00  0.00  0.00  0.00
  N-23-N-22               1.00   0.03  0.00  0.00  0.19  0.78  0.00  0.00  0.96  0.00
  N-24-N-23               1.00   0.03  0.00  0.00  0.13  0.83  0.00  0.00  0.96  0.00
  N-25-N-24               1.00   0.03  0.00  0.00  0.13  0.83  0.00  0.00  0.13  0.00
  N-26-N-25               1.00   0.03  0.41  0.00  0.29  0.27  0.00  0.00  0.97  0.00
  N-27-N-26               1.00   0.03  0.00  0.00  0.41  0.55  0.00  0.00  0.45  0.00
  N-28-N-27               1.00   0.03  0.00  0.00  0.42  0.55  0.00  0.00  0.00  0.00
  N-29-N-28               1.00   0.03  0.00  0.00  0.42  0.55  0.00  0.00  0.97  0.00
  N-3-N-2                 1.00   0.03  0.00  0.00  0.97  0.00  0.00  0.00  0.92  0.00
  N-30-N-29               1.00   0.03  0.00  0.00  0.42  0.55  0.00  0.00  0.42  0.00
  N-31-N-30               1.00   0.03  0.00  0.00  0.42  0.55  0.00  0.00  0.96  0.00
  N-4-N-3                 1.00   0.03  0.00  0.00  0.97  0.00  0.00  0.00  0.86  0.00
  N-5-N-4                 1.00   0.03  0.12  0.00  0.04  0.81  0.00  0.00  0.97  0.00
  N-6-N-5                 1.00   0.03  0.00  0.00  0.12  0.84  0.00  0.00  0.00  0.00
  N-7-N-6                 1.00   0.03  0.00  0.00  0.13  0.84  0.00  0.00  0.12  0.00
  N-8-N-7                 1.00   0.03  0.00  0.00  0.14  0.83  0.00  0.00  0.96  0.00
  N-9-N-8                 1.00   0.03  0.00  0.00  0.13  0.84  0.00  0.00  0.19  0.00
  N1-PS                   1.00   0.03  0.00  0.00  0.00  0.00  0.00  0.97  0.00  0.00
  RBW_FORCEMAIN           1.00   0.03  0.00  0.00  0.97  0.00  0.00  0.00  0.00  0.00
  S-1-JCT-FM2             1.00   0.06  0.75  0.00  0.18  0.02  0.00  0.00  0.96  0.00
  S-2-S-1                 1.00   0.03  0.00  0.00  0.79  0.18  0.00  0.00  0.28  0.00
  S-3-S-2                 1.00   0.03  0.97  0.00  0.00  0.00  0.00  0.00  0.00  0.00
  
  
  *************************
  Conduit Surcharge Summary
  *************************
  
  ----------------------------------------------------------------------------
                                                           Hours        Hours 
                         --------- Hours Full --------   Above Full   Capacity
  Conduit                Both Ends  Upstream  Dnstream   Normal Flow   Limited
  ----------------------------------------------------------------------------
  5A_FORCEMAIN_A              0.01      0.01     84.61      3.04         0.01
  5A_FORCEMAIN_B              0.01      0.01    480.23      0.01         0.01
  5A_FORCEMAIN_C            481.52    481.54    482.36      1.56         4.92
  5A_FORCEMAIN_D            482.35    482.36    482.38     95.73       106.24
  5A_FORCEMAIN_E            482.38    482.38    484.00     19.50        23.27
  5A_FORCEMAIN_PARALLEL_A      480.17    480.22    482.03      2.04         5.30
  5A_FORCEMAIN_PARALLEL_B      482.03    482.03    483.65     20.71        23.26
  FM_TO_RIVERVIEW             0.01      0.01    483.62      0.01         0.01
  INTERCONNECT              482.38    482.38    482.38      5.85        58.97
  K-1A_K-25.2                 0.01      0.34      0.01      0.50         0.01
  K-25.1-N-25                 0.01      0.01    486.89      0.01         0.01
  K-25.2-K-25.1               0.01      0.01    486.89      0.01         0.01
  MC-1-RBW_WETWELL           87.47     87.47    145.37      0.01         0.33
  N-28-N-27                   0.01      0.17      0.01      0.08         0.01
  N-29-N-28                   0.01      0.01      0.17      0.01         0.01
  RBW_FORCEMAIN             467.00    482.97    468.60      0.01       274.90
  
  
  ***************
  Pumping Summary
  ***************
  
  ---------------------------------------------------------------------------------------------------------
                                                  Min       Avg       Max     Total     Power    % Time Off
                        Percent   Number of      Flow      Flow      Flow    Volume     Usage    Pump Curve
  Pump                 Utilized   Start-Ups       MGD       MGD       MGD  10^6 gal     Kw-hr    Low   High
  ---------------------------------------------------------------------------------------------------------
  5A_PUMP_1                7.39        7850      0.00      4.05      4.75     6.279   1540.59    0.0   34.3
  RBW_PUMP1                0.83         195      0.00      2.24      2.30     0.391     50.42    0.0   27.8
  

  Analysis begun on:  Tue Jun 23 20:39:48 2026
  Analysis ended on:  Tue Jun 23 20:40:34 2026
  Total elapsed time: 00:00:46