
  EPA STORM WATER MANAGEMENT MODEL - VERSION 5.2 (Build 5.2.4)
  ------------------------------------------------------------

  WARNING 02: maximum depth increased for Node 82309
  WARNING 02: maximum depth increased for Node 82309A
  WARNING 02: maximum depth increased for Node 82309B
  WARNING 02: maximum depth increased for Node 82309C
  WARNING 02: maximum depth increased for Node 82309E
  
  *************
  Element Count
  *************
  Number of rain gages ...... 0
  Number of subcatchments ... 0
  Number of nodes ........... 61
  Number of links ........... 58
  Number of pollutants ...... 0
  Number of land uses ....... 0
  
  
  ************
  Node Summary
  ************
                                           Invert      Max.    Ponded    External
  Name                 Type                 Elev.     Depth      Area    Inflow  
  -------------------------------------------------------------------------------
  10309                JUNCTION            101.60      9.40       0.0
  10309A               JUNCTION            101.60      9.40       0.0
  10309B               JUNCTION            101.60      9.40       0.0
  10309C               JUNCTION            101.60      9.40       0.0
  10309D               JUNCTION            101.60      9.40       0.0
  10309E               JUNCTION            101.60      9.40       0.0
  15009                JUNCTION            111.50     13.50       0.0
  15009A               JUNCTION            111.50     13.50       0.0
  15009B               JUNCTION            111.50     13.50       0.0
  15009C               JUNCTION            111.50     13.50       0.0
  15009D               JUNCTION            111.50     13.50       0.0
  15009E               JUNCTION            111.50     13.50       0.0
  16009                JUNCTION            102.00     18.00       0.0
  16009A               JUNCTION            102.00     18.00       0.0
  16009B               JUNCTION            102.00     18.00       0.0
  16009C               JUNCTION            102.00     18.00       0.0
  16009D               JUNCTION            102.00     18.00       0.0
  16009E               JUNCTION            102.00     18.00       0.0
  16109                JUNCTION            102.80     22.20       0.0    Yes
  16109A               JUNCTION            102.80     22.20       0.0
  16109B               JUNCTION            102.80     22.20       0.0
  16109C               JUNCTION            102.80     22.20       0.0
  16109D               JUNCTION            102.80     22.20       0.0
  16109E               JUNCTION            102.80     22.20       0.0
  80408                JUNCTION            124.60     13.40       0.0    Yes
  80408A               JUNCTION            124.60     13.40       0.0    Yes
  80408B               JUNCTION            124.60     13.40       0.0    Yes
  80408C               JUNCTION            124.60     13.40       0.0    Yes
  80408D               JUNCTION            124.60     13.40       0.0    Yes
  80408E               JUNCTION            124.60     13.40       0.0    Yes
  80608                JUNCTION            118.30     16.70       0.0
  80608A               JUNCTION            118.30     16.70       0.0
  80608B               JUNCTION            118.30     16.70       0.0
  80608C               JUNCTION            118.30     16.70       0.0
  80608D               JUNCTION            118.30     16.70       0.0
  80608E               JUNCTION            118.30     16.70       0.0
  81009                JUNCTION            128.20      8.80       0.0    Yes
  81009A               JUNCTION            128.20      8.80       0.0    Yes
  81009B               JUNCTION            128.20      8.80       0.0    Yes
  81009C               JUNCTION            128.20      8.80       0.0    Yes
  81009D               JUNCTION            128.20      8.80       0.0    Yes
  81009E               JUNCTION            128.20      8.80       0.0    Yes
  81309                JUNCTION            117.50     12.50       0.0
  81309A               JUNCTION            117.50     12.50       0.0
  81309B               JUNCTION            117.50     12.50       0.0
  81309C               JUNCTION            117.50     12.50       0.0
  81309D               JUNCTION            117.50     12.50       0.0
  81309E               JUNCTION            117.50     12.50       0.0
  82308D               JUNCTION            112.30     42.70       0.0
  82309                JUNCTION            112.30    118.50       0.0    Yes
  82309A               JUNCTION            112.30    118.50       0.0    Yes
  82309B               JUNCTION            112.30    118.50       0.0    Yes
  82309C               JUNCTION            112.30    121.30       0.0    Yes
  82309E               JUNCTION            112.30    118.50       0.0    Yes
  10208                OUTFALL              89.90      9.00       0.0
  10208A               OUTFALL              89.90      9.00       0.0
  10208B               OUTFALL              89.90      9.00       0.0
  10208C               OUTFALL              89.90      9.00       0.0
  10208D               OUTFALL              89.90      9.00       0.0
  10208E               OUTFALL              89.90      9.00       0.0
  82309D               STORAGE             112.30     42.70       0.0    Yes
  
  
  ************
  Link Summary
  ************
  Name             From Node        To Node          Type            Length    %Slope Roughness
  ---------------------------------------------------------------------------------------------
  1030             10309            10208            CONDUIT         4500.0    0.2600    0.0160
  1030A            10309A           10208A           CONDUIT         4500.0    0.2600    0.0160
  1030B            10309B           10208B           CONDUIT         4500.0    0.2600    0.0160
  1030C            10309C           10208C           CONDUIT         4500.0    0.2600    0.0160
  1030D            10309D           10208D           CONDUIT         4500.0    0.2600    0.0160
  1030E            10309E           10208E           CONDUIT         4500.0    0.2600    0.0160
  1570             15009            16009            CONDUIT         5000.0    0.1900    0.0154
  1570A            15009A           16009A           CONDUIT         5000.0    0.1900    0.0154
  1570B            15009B           16009B           CONDUIT         5000.0    0.1900    0.0154
  1570C            15009C           16009C           CONDUIT          100.0    9.5432    0.0154
  1570D            15009D           16009D           CONDUIT         5000.0    0.1900    0.0154
  1570E            15009E           16009E           CONDUIT         5000.0    0.1900    0.0154
  1600             16009            16109            CONDUIT          500.0   -0.1600    0.0150
  1600A            16009A           16109A           CONDUIT          500.0   -0.1600    0.0150
  1600B            16009B           16109B           CONDUIT          500.0   -0.1600    0.0150
  1600C            16009C           16109C           CONDUIT          500.0   -0.1600    0.0150
  1600D            16009D           16109D           CONDUIT          500.0   -0.1600    0.0150
  1600E            16009E           16109E           CONDUIT          500.0   -0.1600    0.0150
  1602             82309            16109            CONDUIT         5000.0    0.1900    0.0340
  1602A            82309A           16109A           CONDUIT         5000.0    0.1900    0.0340
  1602B            82309B           16109B           CONDUIT         5000.0    0.1900    0.0340
  1602C            82309C           16109C           CONDUIT         5000.0    0.1900    0.0340
  1602D            82309D           16109D           CONDUIT         5000.0    0.1900    0.0340
  1602E            82309E           16109E           CONDUIT         5000.0    0.1900    0.0340
  1630             16009            10309            CONDUIT          300.0    0.1333    0.0150
  1630A            16009A           10309A           CONDUIT          300.0    0.1333    0.0150
  1630B            16009B           10309B           CONDUIT          300.0    0.1333    0.0150
  1630C            16009C           10309C           CONDUIT          300.0    0.1333    0.0150
  1630D            16009D           10309D           CONDUIT          300.0    0.1333    0.0150
  1630E            16009E           10309E           CONDUIT          300.0    0.1333    0.0150
  8040             80408            80608            CONDUIT         1800.0    0.3500    0.0150
  8040A            80408A           80608A           CONDUIT         1800.0    0.3500    0.0150
  8040B            80408B           80608B           CONDUIT         1800.0    0.3500    0.0150
  8040C            80408C           80608C           CONDUIT         1800.0    0.3500    0.0150
  8040D            80408D           80608D           CONDUIT         1800.0    0.3500    0.0150
  8040E            80408E           80608E           CONDUIT         1800.0    0.3500    0.0150
  8060             80608            82309            CONDUIT         2075.0   -5.2361    0.0150
  8060A            80608A           82309A           CONDUIT         2075.0   -5.2361    0.0150
  8060B            80608B           82309B           CONDUIT         2075.0   -5.2361    0.0150
  8060C            80608C           82309C           CONDUIT         2075.0   -5.2361    0.0150
  8060D            80608D           82309D           CONDUIT         2075.0   -5.2361    0.0150
  8060E            80608E           82309E           CONDUIT         2075.0   -5.2361    0.0150
  8100             81009            81309            CONDUIT         5100.0    0.2098    0.0150
  8100A            81009A           81309A           CONDUIT         5100.0    0.2098    0.0150
  8100B            81009B           81309B           CONDUIT         5100.0    0.2098    0.0150
  8100C            81009C           81309C           CONDUIT         5100.0    0.2098    0.0150
  8100D            81009D           81309D           CONDUIT         5100.0    0.2098    0.0150
  8100E            81009E           81309E           CONDUIT         5100.0    0.2098    0.0150
  8130             81309            15009            CONDUIT         3500.0    0.1714    0.0150
  8130A            81309A           15009A           CONDUIT         3500.0    0.1714    0.0150
  8130B            81309B           15009B           CONDUIT         3500.0    0.1714    0.0150
  8130C            81309C           15009C           CONDUIT         3500.0    0.1714    0.0150
  8130D            81309D           15009D           CONDUIT         3500.0    0.1714    0.0150
  8130E            81309E           15009E           CONDUIT         3500.0    0.1714    0.0150
  PUMP1@82309E-15009E 82309E           15009E           TYPE2 PUMP  
  OR1@82309B-15009B 82309B           15009B           ORIFICE     
  OR1@82309D-82308D 82309D           82308D           ORIFICE     
  WEIR1@82309C-15009C 82309C           15009C           WEIR        
  
  
  *********************
  Cross Section Summary
  *********************
                                        Full     Full     Hyd.     Max.   No. of     Full
  Conduit          Shape               Depth     Area     Rad.    Width  Barrels     Flow
  ---------------------------------------------------------------------------------------
  1030             TRIANGULAR           9.00   243.00     4.27    54.00        1  3028.41
  1030A            TRIANGULAR           9.00   243.00     4.27    54.00        1  3028.41
  1030B            TRIANGULAR           9.00   243.00     4.27    54.00        1  3028.41
  1030C            TRIANGULAR           9.00   243.00     4.27    54.00        1  3028.41
  1030D            TRIANGULAR           9.00   243.00     4.27    54.00        1  3028.41
  1030E            TRIANGULAR           9.00   243.00     4.27    54.00        1  3028.41
  1570             CIRCULAR             5.50    23.76     1.38     5.50        1   123.56
  1570A            CIRCULAR             5.50    23.76     1.38     5.50        1   123.56
  1570B            CIRCULAR             5.50    23.76     1.38     5.50        1   123.56
  1570C            CIRCULAR             5.50    23.76     1.38     5.50        1   875.71
  1570D            CIRCULAR             5.50    23.76     1.38     5.50        1   123.56
  1570E            CIRCULAR             5.50    23.76     1.38     5.50        1   123.56
  1600             CIRCULAR             6.00    28.27     1.50     6.00        1   146.82
  1600A            CIRCULAR             6.00    28.27     1.50     6.00        1   146.82
  1600B            CIRCULAR             6.00    28.27     1.50     6.00        1   146.82
  1600C            CIRCULAR             6.00    28.27     1.50     6.00        1   146.82
  1600D            CIRCULAR             6.00    28.27     1.50     6.00        1   146.82
  1600E            CIRCULAR             6.00    28.27     1.50     6.00        1   146.82
  1602             CIRCULAR             5.00    19.63     1.25     5.00        1    43.41
  1602A            CIRCULAR             5.00    19.63     1.25     5.00        1    43.41
  1602B            CIRCULAR             5.00    19.63     1.25     5.00        1    43.41
  1602C            CIRCULAR             5.00    19.63     1.25     5.00        1    43.41
  1602D            CIRCULAR             5.00    19.63     1.25     5.00        1    43.41
  1602E            CIRCULAR             5.00    19.63     1.25     5.00        1    43.41
  1630             TRIANGULAR           9.00   243.00     4.27    54.00        1  2313.27
  1630A            TRIANGULAR           9.00   243.00     4.27    54.00        1  2313.27
  1630B            TRIANGULAR           9.00   243.00     4.27    54.00        1  2313.27
  1630C            TRIANGULAR           9.00   243.00     4.27    54.00        1  2313.27
  1630D            TRIANGULAR           9.00   243.00     4.27    54.00        1  2313.27
  1630E            TRIANGULAR           9.00   243.00     4.27    54.00        1  2313.27
  8040             CIRCULAR             4.00    12.57     1.00     4.00        1    73.65
  8040A            CIRCULAR             4.00    12.57     1.00     4.00        1    73.65
  8040B            CIRCULAR             4.00    12.57     1.00     4.00        1    73.65
  8040C            CIRCULAR             4.00    12.57     1.00     4.00        1    73.65
  8040D            CIRCULAR             4.00    12.57     1.00     4.00        1    73.65
  8040E            CIRCULAR             4.00    12.57     1.00     4.00        1    73.65
  8060             CIRCULAR             4.00    12.57     1.00     4.00        1   284.87
  8060A            CIRCULAR             4.00    12.57     1.00     4.00        1   284.87
  8060B            CIRCULAR             4.00    12.57     1.00     4.00        1   284.87
  8060C            CIRCULAR             4.00    12.57     1.00     4.00        1   284.87
  8060D            CIRCULAR             4.00    12.57     1.00     4.00        1   284.87
  8060E            CIRCULAR             4.00    12.57     1.00     4.00        1   284.87
  8100             CIRCULAR             4.50    15.90     1.12     4.50        1    78.06
  8100A            CIRCULAR             4.50    15.90     1.12     4.50        1    78.06
  8100B            CIRCULAR             4.50    15.90     1.12     4.50        1    78.06
  8100C            CIRCULAR             4.50    15.90     1.12     4.50        1    78.06
  8100D            CIRCULAR             4.50    15.90     1.12     4.50        1    78.06
  8100E            CIRCULAR             4.50    15.90     1.12     4.50        1    78.06
  8130             CIRCULAR             4.50    15.90     1.12     4.50        1    70.56
  8130A            CIRCULAR             4.50    15.90     1.12     4.50        1    70.56
  8130B            CIRCULAR             4.50    15.90     1.12     4.50        1    70.56
  8130C            CIRCULAR             4.50    15.90     1.12     4.50        1    70.56
  8130D            CIRCULAR             4.50    15.90     1.12     4.50        1    70.56
  8130E            CIRCULAR             4.50    15.90     1.12     4.50        1    70.56
  
  
  ****************
  Analysis Options
  ****************
  Flow Units ............... CFS
  Process Models:
    Rainfall/Runoff ........ NO
    RDII ................... NO
    Snowmelt ............... NO
    Groundwater ............ NO
    Flow Routing ........... YES
    Ponding Allowed ........ NO
    Water Quality .......... NO
  Flow Routing Method ...... DYNWAVE
  Surcharge Method ......... EXTRAN
  Starting Date ............ 01/01/1988 00:00:00
  Ending Date .............. 01/01/1988 06:00:00
  Antecedent Dry Days ...... 0.0
  Report Time Step ......... 00:00:10
  Routing Time Step ........ 10.00 sec
  Variable Time Step ....... YES
  Maximum Trials ........... 8
  Number of Threads ........ 1
  Head Tolerance ........... 0.005000 ft
  
  
  *********************
  Control Actions Taken
  *********************

  
  **************************        Volume        Volume
  Flow Routing Continuity        acre-feet      10^6 gal
  **************************     ---------     ---------
  Dry Weather Inflow .......         4.958         1.616
  Wet Weather Inflow .......         0.000         0.000
  Groundwater Inflow .......         0.000         0.000
  RDII Inflow ..............         0.000         0.000
  External Inflow ..........       197.504        64.359
  External Outflow .........       132.321        43.119
  Flooding Loss ............        63.746        20.773
  Evaporation Loss .........         0.085         0.028
  Exfiltration Loss ........         0.000         0.000
  Initial Stored Volume ....         1.569         0.511
  Final Stored Volume ......         9.428         3.072
  Continuity Error (%) .....        -0.759
  
  
  *************************
  Highest Continuity Errors
  *************************
  Node 80608E (10.98%)
  Node 80608D (5.36%)
  Node 80608B (5.36%)
  Node 80608C (5.36%)
  Node 80608 (4.41%)
  
  
  ***************************
  Time-Step Critical Elements
  ***************************
  Link 1570C (82.49%)
  
  
  ********************************
  Highest Flow Instability Indexes
  ********************************
  Link OR1@82309D-82308D (120)
  Link 1602D (85)
  Link 8040E (4)
  Link 8040D (2)
  Link 8040B (2)
  
  
  *********************************
  Most Frequent Nonconverging Nodes
  *********************************
  Node 10208 (0.67%)
  Node 10208A (0.67%)
  Node 10208B (0.67%)
  Node 10208C (0.67%)
  Node 10208D (0.67%)
  
  
  *************************
  Routing Time Step Summary
  *************************
  Minimum Time Step           :     0.87 sec
  Average Time Step           :     5.34 sec
  Maximum Time Step           :    10.00 sec
  % of Time in Steady State   :     0.00
  Average Iterations per Step :     2.55
  % of Steps Not Converging   :     0.67
  Time Step Frequencies       :
     10.000 -  5.493 sec      :    28.61 %
      5.493 -  3.017 sec      :    71.36 %
      3.017 -  1.657 sec      :     0.00 %
      1.657 -  0.910 sec      :     0.00 %
      0.910 -  0.500 sec      :     0.02 %
  
  
  ******************
  Node Depth Summary
  ******************
  
  ---------------------------------------------------------------------------------
                                 Average  Maximum  Maximum  Time of Max    Reported
                                   Depth    Depth      HGL   Occurrence   Max Depth
  Node                 Type         Feet     Feet     Feet  days hr:min        Feet
  ---------------------------------------------------------------------------------
  10309                JUNCTION     1.87     2.47   104.07     0  01:50        2.47
  10309A               JUNCTION     1.78     2.41   104.01     0  01:54        2.41
  10309B               JUNCTION     1.88     2.47   104.07     0  01:44        2.47
  10309C               JUNCTION     1.91     2.46   104.06     0  03:01        2.46
  10309D               JUNCTION     1.86     2.47   104.07     0  01:51        2.47
  10309E               JUNCTION     1.88     2.47   104.07     0  01:42        2.47
  15009                JUNCTION     1.80     2.45   113.95     0  01:35        2.45
  15009A               JUNCTION     1.80     2.45   113.95     0  01:35        2.45
  15009B               JUNCTION     2.01     2.68   114.18     0  01:23        2.68
  15009C               JUNCTION     0.67     0.89   112.39     0  03:00        0.89
  15009D               JUNCTION     1.80     2.45   113.95     0  01:36        2.45
  15009E               JUNCTION     2.08     2.77   114.27     0  01:25        2.77
  16009                JUNCTION     2.02     2.64   104.64     0  01:42        2.64
  16009A               JUNCTION     2.03     2.63   104.63     0  01:43        2.63
  16009B               JUNCTION     2.03     2.64   104.64     0  01:36        2.64
  16009C               JUNCTION     2.05     2.63   104.63     0  03:00        2.63
  16009D               JUNCTION     2.02     2.64   104.64     0  01:43        2.64
  16009E               JUNCTION     2.03     2.64   104.64     0  01:34        2.64
  16109                JUNCTION     1.66     2.24   105.04     0  01:41        2.24
  16109A               JUNCTION     1.66     2.24   105.04     0  01:43        2.24
  16109B               JUNCTION     1.52     2.11   104.91     0  01:36        2.11
  16109C               JUNCTION     1.66     2.24   105.04     0  03:00        2.24
  16109D               JUNCTION     1.66     2.24   105.04     0  01:44        2.24
  16109E               JUNCTION     1.48     2.08   104.88     0  01:32        2.08
  80408                JUNCTION    11.63    13.40   138.00     0  00:21       13.40
  80408A               JUNCTION    12.13    13.40   138.00     0  00:17       13.40
  80408B               JUNCTION    11.54    13.40   138.00     0  00:21       13.40
  80408C               JUNCTION    11.54    13.40   138.00     0  00:21       13.40
  80408D               JUNCTION    11.54    13.40   138.00     0  00:21       13.40
  80408E               JUNCTION    10.10    13.40   138.00     0  00:34       13.40
  80608                JUNCTION    16.22    16.70   135.00     0  00:19       16.70
  80608A               JUNCTION    16.32    16.70   135.00     0  00:16       16.70
  80608B               JUNCTION    16.19    16.70   135.00     0  00:19       16.70
  80608C               JUNCTION    16.19    16.70   135.00     0  00:19       16.70
  80608D               JUNCTION    16.19    16.70   135.00     0  00:19       16.70
  80608E               JUNCTION    15.75    16.70   135.00     0  00:29       16.70
  81009                JUNCTION     1.90     2.84   131.04     0  00:31        2.84
  81009A               JUNCTION     1.90     2.84   131.04     0  00:31        2.84
  81009B               JUNCTION     1.90     2.85   131.05     0  00:31        2.85
  81009C               JUNCTION     1.90     2.84   131.04     0  00:31        2.84
  81009D               JUNCTION     1.90     2.84   131.04     0  00:31        2.84
  81009E               JUNCTION     1.90     2.86   131.06     0  00:32        2.86
  81309                JUNCTION     2.21     3.09   120.59     0  01:01        3.09
  81309A               JUNCTION     2.21     3.09   120.59     0  01:01        3.09
  81309B               JUNCTION     2.13     2.95   120.45     0  00:58        2.95
  81309C               JUNCTION     2.37     3.24   120.74     0  03:00        3.24
  81309D               JUNCTION     2.21     3.09   120.59     0  01:01        3.09
  81309E               JUNCTION     2.10     2.92   120.42     0  00:58        2.92
  82308D               JUNCTION     3.45     8.66   120.96     0  01:26        8.56
  82309                JUNCTION     3.44     4.76   117.06     0  01:03        4.76
  82309A               JUNCTION     3.44     4.75   117.05     0  01:03        4.75
  82309B               JUNCTION     2.84     4.04   116.34     0  01:01        4.04
  82309C               JUNCTION     3.44     4.72   117.02     0  01:03        4.72
  82309E               JUNCTION     2.63     3.91   116.21     0  00:57        3.91
  10208                OUTFALL      1.67     2.24    92.14     0  01:50        2.24
  10208A               OUTFALL      4.50     4.50    94.40     0  00:00        4.50
  10208B               OUTFALL      1.67     2.24    92.14     0  01:44        2.24
  10208C               OUTFALL      1.71     2.24    92.14     0  03:01        2.24
  10208D               OUTFALL      1.66     2.24    92.14     0  01:51        2.24
  10208E               OUTFALL      1.68     2.24    92.14     0  01:42        2.24
  82309D               STORAGE      3.44     4.74   117.04     0  01:09        4.74
  
  
  *******************
  Node Inflow Summary
  *******************
  
  -------------------------------------------------------------------------------------------------
                                  Maximum  Maximum                  Lateral       Total        Flow
                                  Lateral    Total  Time of Max      Inflow      Inflow     Balance
                                   Inflow   Inflow   Occurrence      Volume      Volume       Error
  Node                 Type           CFS      CFS  days hr:min    10^6 gal    10^6 gal     Percent
  -------------------------------------------------------------------------------------------------
  10309                JUNCTION      0.00    90.49     0  01:41           0        7.21       0.292
  10309A               JUNCTION      0.00    90.47     0  01:41           0        7.22       1.293
  10309B               JUNCTION      0.00    90.68     0  01:35           0        7.23       0.267
  10309C               JUNCTION      0.00    89.99     0  03:00           0        7.24       0.204
  10309D               JUNCTION      0.00    90.45     0  01:42           0        7.21       0.303
  10309E               JUNCTION      0.00    90.97     0  01:33           0        7.23       0.252
  15009                JUNCTION      0.00    50.96     0  01:14           0        4.04       0.341
  15009A               JUNCTION      0.00    50.96     0  01:14           0        4.04       0.349
  15009B               JUNCTION      0.00    58.78     0  01:07           0        4.76       0.069
  15009C               JUNCTION      0.00    50.00     0  03:00           0        4.03       0.062
  15009D               JUNCTION      0.00    50.93     0  01:14           0        4.04       0.311
  15009E               JUNCTION      0.00    60.99     0  01:09           0           5       0.022
  16009                JUNCTION      0.00    90.52     0  01:37           0        7.25       0.449
  16009A               JUNCTION      0.00    90.51     0  01:37           0        7.25       0.417
  16009B               JUNCTION      0.00    90.74     0  01:31           0        7.26       0.475
  16009C               JUNCTION      0.00    90.00     0  03:00           0        7.24      -0.008
  16009D               JUNCTION      0.00    90.49     0  01:38           0        7.24       0.479
  16009E               JUNCTION      0.00    91.04     0  01:29           0        7.26       0.457
  16109                JUNCTION      0.00    40.25     0  01:16           0        3.24       0.000
  16109A               JUNCTION      0.00    40.21     0  01:17           0        3.24       0.000
  16109B               JUNCTION      0.00    32.54     0  01:18           0        2.53       0.000
  16109C               JUNCTION      0.00    40.09     0  01:14           0        3.24       0.000
  16109D               JUNCTION      0.00    40.23     0  01:26           0        3.23       0.000
  16109E               JUNCTION      0.00    30.84     0  01:10           0        2.29       0.000
  80408                JUNCTION     45.00    45.00     0  00:20        4.41        4.41       1.760
  80408A               JUNCTION     55.00    55.00     0  00:16        5.25        5.25       1.483
  80408B               JUNCTION     45.00    45.00     0  00:20        3.63        3.63       2.143
  80408C               JUNCTION     45.00    45.00     0  00:20        3.63        3.63       2.143
  80408D               JUNCTION     45.00    45.00     0  00:20        3.63        3.63       2.143
  80408E               JUNCTION     22.50    22.50     0  00:29        1.82        1.82       4.508
  80608                JUNCTION      0.00    45.01     0  00:23           0        4.32       4.609
  80608A               JUNCTION      0.00    51.81     0  00:16           0        4.85       4.081
  80608B               JUNCTION      0.00    45.01     0  00:23           0        3.54       5.668
  80608C               JUNCTION      0.00    45.01     0  00:23           0        3.54       5.668
  80608D               JUNCTION      0.00    45.01     0  00:23           0        3.54       5.668
  80608E               JUNCTION      0.00    22.51     0  00:35           0        1.74      12.332
  81009                JUNCTION     50.00    50.00     0  00:15        4.04        4.04      -0.486
  81009A               JUNCTION     50.00    50.00     0  00:15        4.04        4.04      -0.486
  81009B               JUNCTION     50.00    50.00     0  00:15        4.04        4.04      -0.493
  81009C               JUNCTION     50.00    50.00     0  00:15        4.04        4.04      -0.516
  81009D               JUNCTION     50.00    50.00     0  00:15        4.04        4.04      -0.486
  81009E               JUNCTION     50.00    50.00     0  00:15        4.04        4.04      -0.495
  81309                JUNCTION      0.00    53.76     0  00:40           0        4.06       0.406
  81309A               JUNCTION      0.00    53.77     0  00:40           0        4.06       0.406
  81309B               JUNCTION      0.00    53.48     0  00:41           0        4.06       0.568
  81309C               JUNCTION      0.00    53.64     0  00:40           0        4.06       0.808
  81309D               JUNCTION      0.00    53.76     0  00:40           0        4.06       0.406
  81309E               JUNCTION      0.00    53.41     0  00:42           0        4.06       0.613
  82308D               JUNCTION      0.00    11.55     0  03:34           0     0.00391       0.000
  82309                JUNCTION     40.00    40.00     0  00:15        3.23        3.23      -0.372
  82309A               JUNCTION     40.00    40.00     0  00:15        3.23        3.23      -0.370
  82309B               JUNCTION     40.00    40.00     0  00:15        3.23        3.23      -0.690
  82309C               JUNCTION     40.00    40.00     0  00:15        3.23        3.23      -0.308
  82309E               JUNCTION     40.00    40.00     0  00:15        3.23        3.23      -0.885
  10208                OUTFALL       0.00    90.37     0  01:50           0        7.19       0.000
  10208A               OUTFALL       0.00    90.28     0  01:54           0        7.12       0.000
  10208B               OUTFALL       0.00    90.52     0  01:44           0         7.2       0.000
  10208C               OUTFALL       0.00    89.96     0  03:01           0        7.22       0.000
  10208D               OUTFALL       0.00    90.34     0  01:51           0        7.18       0.000
  10208E               OUTFALL       0.00    90.77     0  01:42           0        7.21       0.000
  82309D               STORAGE      40.00    40.56     0  00:14        3.23        3.23      -0.254
  
  
  **********************
  Node Surcharge Summary
  **********************
  
  Surcharging occurs when water rises above the top of the highest conduit.
  ---------------------------------------------------------------------
                                               Max. Height   Min. Depth
                                   Hours       Above Crown    Below Rim
  Node                 Type      Surcharged           Feet         Feet
  ---------------------------------------------------------------------
  80408                JUNCTION        5.65          9.400        0.000
  80408A               JUNCTION        5.71          9.400        0.000
  80408B               JUNCTION        5.65          9.400        0.000
  80408C               JUNCTION        5.65          9.400        0.000
  80408D               JUNCTION        5.65          9.400        0.000
  80408E               JUNCTION        5.43          9.400        0.000
  80608                JUNCTION        5.68         12.700        0.000
  80608A               JUNCTION        5.73         12.700        0.000
  80608B               JUNCTION        5.68         12.700        0.000
  80608C               JUNCTION        5.68         12.700        0.000
  80608D               JUNCTION        5.68         12.700        0.000
  80608E               JUNCTION        5.51         12.700        0.000
  82308D               JUNCTION        3.33          6.661       34.039
  
  
  *********************
  Node Flooding Summary
  *********************
  
  Flooding refers to all water that overflows a node, whether it ponds or not.
  --------------------------------------------------------------------------
                                                             Total   Maximum
                                 Maximum   Time of Max       Flood    Ponded
                        Hours       Rate    Occurrence      Volume     Depth
  Node                 Flooded       CFS   days hr:min    10^6 gal      Feet
  --------------------------------------------------------------------------
  80408                   0.03     42.06      0  00:21       0.013     0.000
  80408A                  2.74     51.48      0  00:17       0.326     0.000
  80408B                  0.03     42.06      0  00:21       0.013     0.000
  80408C                  0.03     42.06      0  00:21       0.013     0.000
  80408D                  0.03     42.06      0  00:21       0.013     0.000
  80408E                  0.01     20.37      0  00:34       0.003     0.000
  80608                   5.66     45.01      0  00:23       4.128     0.000
  80608A                  5.72     50.82      0  01:27       4.657     0.000
  80608B                  2.91     45.01      0  00:23       3.354     0.000
  80608C                  2.91     45.01      0  00:23       3.354     0.000
  80608D                  2.91     45.01      0  00:23       3.354     0.000
  80608E                  2.68     22.51      0  00:35       1.545     0.000
  
  
  **********************
  Storage Volume Summary
  **********************
  
  ------------------------------------------------------------------------------------------------
                         Average    Avg   Evap  Exfil     Maximum    Max    Time of Max    Maximum
                          Volume   Pcnt   Pcnt   Pcnt      Volume   Pcnt     Occurrence    Outflow
  Storage Unit          1000 ftł   Full   Loss   Loss    1000 ftł   Full    days hr:min        CFS
  ------------------------------------------------------------------------------------------------
  82309D                   2.753    8.1    0.0    0.0       3.791   11.1       0  01:09      40.23
  
  
  ***********************
  Outfall Loading Summary
  ***********************
  
  -----------------------------------------------------------
                         Flow       Avg       Max       Total
                         Freq      Flow      Flow      Volume
  Outfall Node           Pcnt       CFS       CFS    10^6 gal
  -----------------------------------------------------------
  10208                 94.94     61.15     90.37       7.190
  10208A                92.98     61.15     90.28       7.117
  10208B                95.92     60.80     90.52       7.202
  10208C                97.06     61.67     89.96       7.222
  10208D                94.71     61.10     90.34       7.180
  10208E                96.59     60.50     90.77       7.205
  -----------------------------------------------------------
  System                95.37    366.36    541.90      43.115
  
  
  ********************
  Link Flow Summary
  ********************
  
  -----------------------------------------------------------------------------
                                 Maximum  Time of Max   Maximum    Max/    Max/
                                  |Flow|   Occurrence   |Veloc|    Full    Full
  Link                 Type          CFS  days hr:min    ft/sec    Flow   Depth
  -----------------------------------------------------------------------------
  1030                 CONDUIT     90.37     0  01:50      5.43    0.03    0.26
  1030A                CONDUIT     90.28     0  01:54      2.52    0.03    0.38
  1030B                CONDUIT     90.52     0  01:44      5.44    0.03    0.26
  1030C                CONDUIT     89.96     0  03:01      5.43    0.03    0.26
  1030D                CONDUIT     90.34     0  01:51      5.43    0.03    0.26
  1030E                CONDUIT     90.77     0  01:42      5.44    0.03    0.26
  1570                 CONDUIT     50.44     0  01:36      4.70    0.41    0.46
  1570A                CONDUIT     50.44     0  01:36      4.71    0.41    0.46
  1570B                CONDUIT     58.40     0  01:27      5.14    0.47    0.48
  1570C                CONDUIT     50.00     0  03:00      7.62    0.06    0.32
  1570D                CONDUIT     50.43     0  01:36      4.70    0.41    0.46
  1570E                CONDUIT     60.61     0  01:28      5.22    0.49    0.49
  1600                 CONDUIT     40.09     0  01:40      4.32    0.27    0.41
  1600A                CONDUIT     40.08     0  01:42      4.31    0.27    0.41
  1600B                CONDUIT     32.40     0  01:37      3.11    0.22    0.40
  1600C                CONDUIT     40.03     0  01:31      3.73    0.27    0.41
  1600D                CONDUIT     40.08     0  01:44      4.17    0.27    0.41
  1600E                CONDUIT     30.43     0  01:30      2.95    0.21    0.39
  1602                 CONDUIT     40.25     0  01:16      2.77    0.93    0.70
  1602A                CONDUIT     40.21     0  01:17      2.76    0.93    0.70
  1602B                CONDUIT     32.54     0  01:18      2.60    0.75    0.61
  1602C                CONDUIT     40.09     0  01:14      2.76    0.92    0.69
  1602D                CONDUIT     40.23     0  01:26      2.76    0.93    0.70
  1602E                CONDUIT     30.84     0  01:10      2.56    0.71    0.59
  1630                 CONDUIT     90.49     0  01:41      5.26    0.04    0.28
  1630A                CONDUIT     90.47     0  01:41      6.85    0.04    0.28
  1630B                CONDUIT     90.68     0  01:35      5.18    0.04    0.28
  1630C                CONDUIT     89.99     0  03:00      5.04    0.04    0.28
  1630D                CONDUIT     90.45     0  01:42      5.27    0.04    0.28
  1630E                CONDUIT     90.97     0  01:33      5.04    0.04    0.28
  8040                 CONDUIT     45.01     0  00:23      6.38    0.61    1.00
  8040A                CONDUIT     51.81     0  00:16      6.65    0.70    1.00
  8040B                CONDUIT     45.01     0  00:23      6.38    0.61    1.00
  8040C                CONDUIT     45.01     0  00:23      6.38    0.61    1.00
  8040D                CONDUIT     45.01     0  00:23      6.38    0.61    1.00
  8040E                CONDUIT     22.51     0  00:35      5.50    0.31    1.00
  8060                 CONDUIT      0.00     0  00:00      0.00    0.00    0.50
  8060A                CONDUIT      0.00     0  00:00      0.00    0.00    0.50
  8060B                CONDUIT      0.00     0  00:00      0.00    0.00    0.50
  8060C                CONDUIT      0.00     0  00:00      0.00    0.00    0.50
  8060D                CONDUIT      0.00     0  00:00      0.00    0.00    0.50
  8060E                CONDUIT      0.00     0  00:00      0.00    0.00    0.50
  8100                 CONDUIT     53.76     0  00:40      6.47    0.69    0.64
  8100A                CONDUIT     53.77     0  00:40      6.47    0.69    0.64
  8100B                CONDUIT     53.48     0  00:41      6.55    0.69    0.62
  8100C                CONDUIT     53.64     0  00:40      6.47    0.69    0.65
  8100D                CONDUIT     53.76     0  00:40      6.47    0.69    0.63
  8100E                CONDUIT     53.41     0  00:42      6.58    0.68    0.62
  8130                 CONDUIT     50.96     0  01:14      5.55    0.72    0.61
  8130A                CONDUIT     50.96     0  01:14      5.55    0.72    0.61
  8130B                CONDUIT     50.86     0  01:09      4.95    0.72    0.62
  8130C                CONDUIT     50.00     0  03:00      7.06    0.71    0.46
  8130D                CONDUIT     50.93     0  01:14      5.53    0.72    0.61
  8130E                CONDUIT     50.99     0  01:09      4.91    0.72    0.63
  PUMP1@82309E-15009E  PUMP        10.00     0  00:10              0.50
  OR1@82309B-15009B    ORIFICE      9.04     0  00:29                          
  OR1@82309D-82308D    ORIFICE     11.55     0  03:34                      1.00
  WEIR1@82309C-15009C  WEIR         0.00     0  00:00                      0.00
  
  
  ***************************
  Flow Classification Summary
  ***************************
  
  -------------------------------------------------------------------------------------
                      Adjusted    ---------- Fraction of Time in Flow Class ---------- 
                       /Actual         Up    Down  Sub   Sup   Up    Down  Norm  Inlet 
  Conduit               Length    Dry  Dry   Dry   Crit  Crit  Crit  Crit  Ltd   Ctrl  
  -------------------------------------------------------------------------------------
  1030                    1.00   0.04  0.00  0.00  0.96  0.00  0.00  0.00  0.00  0.00
  1030A                   1.00   0.00  0.07  0.00  0.93  0.00  0.00  0.00  0.93  0.00
  1030B                   1.00   0.03  0.00  0.00  0.97  0.00  0.00  0.00  0.00  0.00
  1030C                   1.00   0.02  0.00  0.00  0.98  0.00  0.00  0.00  0.00  0.00
  1030D                   1.00   0.04  0.00  0.00  0.96  0.00  0.00  0.00  0.00  0.00
  1030E                   1.00   0.02  0.00  0.00  0.98  0.00  0.00  0.00  0.00  0.00
  1570                    1.00   0.00  0.00  0.00  1.00  0.00  0.00  0.00  0.92  0.00
  1570A                   1.00   0.00  0.00  0.00  1.00  0.00  0.00  0.00  0.92  0.00
  1570B                   1.00   0.00  0.00  0.00  0.97  0.03  0.00  0.00  0.47  0.00
  1570C                   1.00   0.00  0.00  0.00  0.47  0.53  0.00  0.00  1.00  0.00
  1570D                   1.00   0.00  0.00  0.00  1.00  0.00  0.00  0.00  0.91  0.00
  1570E                   1.00   0.00  0.00  0.00  0.96  0.04  0.00  0.00  0.44  0.00
  1600                    1.00   0.00  0.00  0.00  0.97  0.03  0.00  0.00  0.34  0.00
  1600A                   1.00   0.00  0.00  0.00  0.97  0.03  0.00  0.00  0.34  0.00
  1600B                   1.00   0.00  0.00  0.00  1.00  0.00  0.00  0.00  0.33  0.00
  1600C                   1.00   0.00  0.00  0.00  1.00  0.00  0.00  0.00  0.43  0.00
  1600D                   1.00   0.00  0.00  0.00  0.97  0.03  0.00  0.00  0.34  0.00
  1600E                   1.00   0.00  0.01  0.00  0.99  0.00  0.00  0.00  0.40  0.00
  1602                    1.00   0.00  0.00  0.00  1.00  0.00  0.00  0.00  0.00  0.00
  1602A                   1.00   0.00  0.00  0.00  1.00  0.00  0.00  0.00  0.00  0.00
  1602B                   1.00   0.00  0.00  0.00  1.00  0.00  0.00  0.00  0.42  0.00
  1602C                   1.00   0.00  0.00  0.00  1.00  0.00  0.00  0.00  0.00  0.00
  1602D                   1.00   0.00  0.00  0.00  1.00  0.00  0.00  0.00  0.00  0.00
  1602E                   1.00   0.01  0.00  0.00  0.99  0.00  0.00  0.00  0.44  0.00
  1630                    1.00   0.00  0.00  0.00  0.95  0.05  0.00  0.00  0.29  0.00
  1630A                   1.00   0.00  0.00  0.00  0.92  0.08  0.00  0.00  0.29  0.00
  1630B                   1.00   0.00  0.00  0.00  0.94  0.06  0.00  0.00  0.30  0.00
  1630C                   1.00   0.00  0.00  0.00  0.96  0.04  0.00  0.00  0.33  0.00
  1630D                   1.00   0.00  0.00  0.00  0.94  0.05  0.00  0.00  0.29  0.00
  1630E                   1.00   0.00  0.00  0.00  0.94  0.06  0.00  0.00  0.30  0.00
  8040                    1.00   0.00  0.00  0.00  0.97  0.03  0.00  0.00  0.01  0.00
  8040A                   1.00   0.00  0.00  0.00  0.98  0.02  0.00  0.00  0.01  0.00
  8040B                   1.00   0.00  0.00  0.00  0.97  0.03  0.00  0.00  0.01  0.00
  8040C                   1.00   0.00  0.00  0.00  0.97  0.03  0.00  0.00  0.01  0.00
  8040D                   1.00   0.00  0.00  0.00  0.97  0.03  0.00  0.00  0.01  0.00
  8040E                   1.00   0.00  0.00  0.00  0.97  0.03  0.00  0.00  0.04  0.00
  8060                    1.00   0.00  1.00  0.00  0.00  0.00  0.00  0.00  0.00  0.00
  8060A                   1.00   0.00  1.00  0.00  0.00  0.00  0.00  0.00  0.00  0.00
  8060B                   1.00   0.00  1.00  0.00  0.00  0.00  0.00  0.00  0.00  0.00
  8060C                   1.00   0.00  1.00  0.00  0.00  0.00  0.00  0.00  0.00  0.00
  8060D                   1.00   0.00  1.00  0.00  0.00  0.00  0.00  0.00  0.00  0.00
  8060E                   1.00   0.00  1.00  0.00  0.00  0.00  0.00  0.00  0.00  0.00
  8100                    1.00   0.00  0.00  0.00  0.96  0.04  0.00  0.00  0.89  0.00
  8100A                   1.00   0.00  0.00  0.00  0.96  0.04  0.00  0.00  0.89  0.00
  8100B                   1.00   0.00  0.00  0.00  0.96  0.04  0.00  0.00  0.88  0.00
  8100C                   1.00   0.00  0.00  0.00  0.96  0.04  0.00  0.00  0.89  0.00
  8100D                   1.00   0.00  0.00  0.00  0.96  0.04  0.00  0.00  0.89  0.00
  8100E                   1.00   0.00  0.00  0.00  0.96  0.04  0.00  0.00  0.88  0.00
  8130                    1.00   0.00  0.00  0.00  0.96  0.04  0.00  0.00  0.45  0.00
  8130A                   1.00   0.00  0.00  0.00  0.96  0.04  0.00  0.00  0.45  0.00
  8130B                   1.00   0.00  0.00  0.00  1.00  0.00  0.00  0.00  0.50  0.00
  8130C                   1.00   0.00  0.00  0.00  0.67  0.33  0.00  0.00  0.00  0.00
  8130D                   1.00   0.00  0.00  0.00  0.96  0.04  0.00  0.00  0.45  0.00
  8130E                   1.00   0.00  0.00  0.00  1.00  0.00  0.00  0.00  0.52  0.00
  
  
  *************************
  Conduit Surcharge Summary
  *************************
  
  ----------------------------------------------------------------------------
                                                           Hours        Hours 
                         --------- Hours Full --------   Above Full   Capacity
  Conduit                Both Ends  Upstream  Dnstream   Normal Flow   Limited
  ----------------------------------------------------------------------------
  8040                        5.65      5.65      5.68      0.01         0.01
  8040A                       5.71      5.71      5.73      0.01         0.01
  8040B                       5.65      5.65      5.68      0.01         0.01
  8040C                       5.65      5.65      5.68      0.01         0.01
  8040D                       5.65      5.65      5.68      0.01         0.01
  8040E                       5.43      5.43      5.51      0.01         0.01
  
  
  ***************
  Pumping Summary
  ***************
  
  ---------------------------------------------------------------------------------------------------------
                                                  Min       Avg       Max     Total     Power    % Time Off
                        Percent   Number of      Flow      Flow      Flow    Volume     Usage    Pump Curve
  Pump                 Utilized   Start-Ups       CFS       CFS       CFS  10^6 gal     Kw-hr    Low   High
  ---------------------------------------------------------------------------------------------------------
  PUMP1@82309E-15009E     64.27           2      0.00      9.57     10.00     0.964      5.18    0.0   13.8
  

  Analysis begun on:  Tue Jun 23 20:40:34 2026
  Analysis ended on:  Tue Jun 23 20:40:34 2026
  Total elapsed time: < 1 sec