
  EPA STORM WATER MANAGEMENT MODEL - VERSION 5.2 (Build 5.2.4)
  ------------------------------------------------------------

  WARNING 02: maximum depth increased for Node 20
  
  ****************
  Analysis Options
  ****************
  Flow Units ............... GPM
  Process Models:
    Rainfall/Runoff ........ NO
    RDII ................... NO
    Snowmelt ............... NO
    Groundwater ............ NO
    Flow Routing ........... YES
    Ponding Allowed ........ NO
    Water Quality .......... NO
  Flow Routing Method ...... DYNWAVE
  Surcharge Method ......... EXTRAN
  Starting Date ............ 01/01/2002 00:00:00
  Ending Date .............. 01/01/2002 00:00:00
  Antecedent Dry Days ...... 5.0
  Report Time Step ......... 00:05:00
  Routing Time Step ........ 300.00 sec
  Variable Time Step ....... YES
  Maximum Trials ........... 8
  Number of Threads ........ 1
  Head Tolerance ........... 0.005000 ft
  
  
  **************************        Volume        Volume
  Flow Routing Continuity        acre-feet      10^6 gal
  **************************     ---------     ---------
  Dry Weather Inflow .......         3.977         1.296
  Wet Weather Inflow .......         0.000         0.000
  Groundwater Inflow .......         0.000         0.000
  RDII Inflow ..............         0.000         0.000
  External Inflow ..........         0.000         0.000
  External Outflow .........         0.867         0.283
  Flooding Loss ............         3.064         0.999
  Evaporation Loss .........         0.000         0.000
  Exfiltration Loss ........         0.000         0.000
  Initial Stored Volume ....         0.007         0.002
  Final Stored Volume ......         0.051         0.017
  Continuity Error (%) .....         0.048
  
  
  *************************
  Highest Continuity Errors
  *************************
  Node 16 (30.33%)
  Node 14 (2.68%)
  
  
  ***************************
  Time-Step Critical Elements
  ***************************
  Link 17 (98.20%)
  Link 21 (1.70%)
  
  
  ********************************
  Highest Flow Instability Indexes
  ********************************
  Link 19 (148)
  
  
  *********************************
  Most Frequent Nonconverging Nodes
  *********************************
  Node 18 (98.56%)
  Node 16 (98.55%)
  Node 14 (0.24%)
  Node 12 (0.01%)
  Node 22 (0.01%)
  
  
  *************************
  Routing Time Step Summary
  *************************
  Minimum Time Step           :     0.48 sec
  Average Time Step           :     0.94 sec
  Maximum Time Step           :     1.55 sec
  % of Time in Steady State   :     0.00
  Average Iterations per Step :     7.95
  % of Steps Not Converging   :    98.56
  Time Step Frequencies       :
     300.000 - 83.462 sec      :     0.00 %
     83.462 - 23.220 sec      :     0.00 %
     23.220 -  6.460 sec      :     0.00 %
      6.460 -  1.797 sec      :     0.00 %
      1.797 -  0.500 sec      :   100.00 %
  
  
  ******************
  Node Depth Summary
  ******************
  
  ---------------------------------------------------------------------------------
                                 Average  Maximum  Maximum  Time of Max    Reported
                                   Depth    Depth      HGL   Occurrence   Max Depth
  Node                 Type         Feet     Feet     Feet  days hr:min        Feet
  ---------------------------------------------------------------------------------
  12                   JUNCTION    59.58    77.80   465.30     0  00:20       66.66
  14                   JUNCTION    44.86   138.23   534.85     0  00:20       56.42
  16                   JUNCTION    89.74   159.18   511.18     0  00:20      101.10
  20                   JUNCTION     0.15     0.15   405.89     0  02:01        0.15
  22                   JUNCTION     3.80     3.83   354.03     0  00:28        3.83
  24                   JUNCTION     0.11     0.11   370.11     0  00:00        0.11
  18                   OUTFALL      0.14     0.15   405.15     0  02:01        0.15
  9000                 STORAGE      8.84     8.85   370.09     0  00:07        8.85
  9002                 STORAGE      4.99     5.00   354.00     0  00:07        5.00
  
  
  *******************
  Node Inflow Summary
  *******************
  
  -------------------------------------------------------------------------------------------------
                                  Maximum  Maximum                  Lateral       Total        Flow
                                  Lateral    Total  Time of Max      Inflow      Inflow     Balance
                                   Inflow   Inflow   Occurrence      Volume      Volume       Error
  Node                 Type           GPM      GPM  days hr:min    10^6 gal    10^6 gal     Percent
  -------------------------------------------------------------------------------------------------
  12                   JUNCTION      0.00   640.09     0  00:04           0       0.291       0.973
  14                   JUNCTION      0.00   847.27     0  00:20           0       0.291       2.755
  16                   JUNCTION      0.00   570.00     0  00:00           0     0.00458      43.524
  20                   JUNCTION      0.00   200.48     0  01:59           0       0.283       0.288
  22                   JUNCTION    400.00  1293.01     0  00:00       0.576       0.576       0.015
  24                   JUNCTION    500.00   500.00     0  00:00        0.72        0.72       0.001
  18                   OUTFALL       0.00   200.48     0  02:01           0       0.283       0.000
  9000                 STORAGE       0.00   517.50     0  00:00           0       0.721       0.009
  9002                 STORAGE       0.00  1524.73     0  00:00           0       0.577       0.006
  
  
  **********************
  Node Surcharge Summary
  **********************
  
  Surcharging occurs when water rises above the top of the highest conduit.
  ---------------------------------------------------------------------
                                               Max. Height   Min. Depth
                                   Hours       Above Crown    Below Rim
  Node                 Type      Surcharged           Feet         Feet
  ---------------------------------------------------------------------
  12                   JUNCTION       23.93         77.137        0.000
  14                   JUNCTION       23.66        137.561        0.000
  16                   JUNCTION       23.96        158.511        0.000
  22                   JUNCTION       23.94          2.833        0.967
  
  
  *********************
  Node Flooding Summary
  *********************
  
  Flooding refers to all water that overflows a node, whether it ponds or not.
  --------------------------------------------------------------------------
                                                             Total   Maximum
                                 Maximum   Time of Max       Flood    Ponded
                        Hours       Rate    Occurrence      Volume     Depth
  Node                 Flooded       GPM   days hr:min    10^6 gal      Feet
  --------------------------------------------------------------------------
  9000                   23.86    500.00      0  00:20       0.428     0.000
  9002                   23.88    406.72      0  00:29       0.570     0.000
  
  
  **********************
  Storage Volume Summary
  **********************
  
  ------------------------------------------------------------------------------------------------
                         Average    Avg   Evap  Exfil     Maximum    Max    Time of Max    Maximum
                          Volume   Pcnt   Pcnt   Pcnt      Volume   Pcnt     Occurrence    Outflow
  Storage Unit          1000 ftģ   Full   Loss   Loss    1000 ftģ   Full    days hr:min        GPM
  ------------------------------------------------------------------------------------------------
  9000                     0.250   99.8    0.0    0.0       0.250  100.0       0  00:07     640.00
  9002                     0.300   99.8    0.0    0.0       0.300  100.0       0  00:07    1463.01
  
  
  ***********************
  Outfall Loading Summary
  ***********************
  
  -----------------------------------------------------------
                         Flow       Avg       Max       Total
                         Freq      Flow      Flow      Volume
  Outfall Node           Pcnt       GPM       GPM    10^6 gal
  -----------------------------------------------------------
  18                    98.69    199.44    200.48       0.283
  -----------------------------------------------------------
  System                98.69    199.44    200.48       0.283
  
  
  ********************
  Link Flow Summary
  ********************
  
  -----------------------------------------------------------------------------
                                 Maximum  Time of Max   Maximum    Max/    Max/
                                  |Flow|   Occurrence   |Veloc|    Full    Full
  Link                 Type          GPM  days hr:min    ft/sec    Flow   Depth
  -----------------------------------------------------------------------------
  11                   CONDUIT    512.26     0  00:20      3.30    1.04    1.00
  13                   CONDUIT    335.02     0  00:20      2.17    0.19    1.00
  15                   CONDUIT    200.48     0  01:59      2.44    0.47    0.61
  17                   CONDUIT    200.48     0  02:01      6.21    0.05    0.15
  19                   CONDUIT   1524.73     0  00:00      5.77    0.27    1.00
  21                   CONDUIT    517.50     0  00:00      2.59    0.02    0.55
  5000                 PUMP       640.00     0  00:00              1.00
  5002                 PUMP       570.00     0  00:00              1.00
  
  
  ***************************
  Flow Classification Summary
  ***************************
  
  -------------------------------------------------------------------------------------
                      Adjusted    ---------- Fraction of Time in Flow Class ---------- 
                       /Actual         Up    Down  Sub   Sup   Up    Down  Norm  Inlet 
  Conduit               Length    Dry  Dry   Dry   Crit  Crit  Crit  Crit  Ltd   Ctrl  
  -------------------------------------------------------------------------------------
  11                      1.00   0.00  0.00  0.00  1.00  0.00  0.00  0.00  0.00  0.00
  13                      1.00   0.00  0.00  0.00  1.00  0.00  0.00  0.00  0.00  0.00
  15                      1.00   0.00  0.01  0.00  0.99  0.00  0.00  0.00  0.00  0.00
  17                      1.00   0.01  0.00  0.00  0.00  0.99  0.00  0.00  0.00  0.00
  19                      1.00   0.00  0.00  0.00  1.00  0.00  0.00  0.00  0.00  0.00
  21                      1.00   0.00  0.00  0.00  1.00  0.00  0.00  0.00  1.00  0.00
  
  
  *************************
  Conduit Surcharge Summary
  *************************
  
  ----------------------------------------------------------------------------
                                                           Hours        Hours 
                         --------- Hours Full --------   Above Full   Capacity
  Conduit                Both Ends  Upstream  Dnstream   Normal Flow   Limited
  ----------------------------------------------------------------------------
  11                         23.66     23.66     23.93      0.02         0.01
  13                         23.66     23.66     23.96      0.01         0.01
  15                          0.01      0.01     23.66      0.01         0.01
  19                         23.94     23.94     24.00      0.01         0.01
  21                          0.01      0.01     24.00      0.01         0.01
  
  
  ***************
  Pumping Summary
  ***************
  
  ---------------------------------------------------------------------------------------------------------
                                                  Min       Avg       Max     Total     Power    % Time Off
                        Percent   Number of      Flow      Flow      Flow    Volume     Usage    Pump Curve
  Pump                 Utilized   Start-Ups       GPM       GPM       GPM  10^6 gal     Kw-hr    Low   High
  ---------------------------------------------------------------------------------------------------------
  5000                   100.00           2      0.00    201.85    640.00     0.291     69.91    0.0    0.3
  5002                     1.44           1      0.00    219.94    570.00     0.005      0.61    0.0   11.2
  

  Analysis begun on:  Tue Jun 23 20:41:11 2026
  Analysis ended on:  Tue Jun 23 20:41:11 2026
  Total elapsed time: < 1 sec