
  EPA STORM WATER MANAGEMENT MODEL - VERSION 5.2 (Build 5.2.4)
  ------------------------------------------------------------

   SW 1 0 9A1 'BROWARD COUNTY Multi FAMILY SITE - Runoff example # 47'A2 'RUNO 
  
  *************
  Element Count
  *************
  Number of rain gages ...... 1
  Number of subcatchments ... 4
  Number of nodes ........... 5
  Number of links ........... 4
  Number of pollutants ...... 5
  Number of land uses ....... 1
  
  
  *****************
  Pollutant Summary
  *****************
                               Ppt.      GW         Kdecay
  Name                 Units   Concen.   Concen.    1/days    CoPollutant
  -----------------------------------------------------------------------
  COD                   MG/L      5.00      0.00      0.00
  TOTSOL                MG/L      5.00      0.00      0.00
  TOTNIT                MG/L      0.30      0.00      0.00
  TSS                   MG/L      5.00      0.00      0.00
  PO4                   MG/L      0.00      0.00      0.00
  
  
  ***************
  Landuse Summary
  ***************
                         Sweeping   Maximum      Last
  Name                   Interval   Removal     Swept
  ---------------------------------------------------
  HOUSING                    0.00      0.00      0.00
  
  
  ****************
  Raingage Summary
  ****************
                                                      Data       Recording
  Name                 Data Source                    Type       Interval 
  ------------------------------------------------------------------------
  GAGE1                RainSeries1                    CUMULATIVE   5 min.
  
  
  ********************
  Subcatchment Summary
  ********************
  Name                       Area     Width   %Imperv    %Slope Rain Gage            Outlet              
  -----------------------------------------------------------------------------------------------------------
  CA-1                       5.00    600.00     39.00    2.7000 GAGE1                P001                
  CA-7                       1.60    200.00     48.60    2.7000 GAGE1                P005                
  CA-8                       4.57    500.00     46.70    2.7000 GAGE1                P009                
  CA-11                      3.58    600.00     47.00    2.7000 GAGE1                P011                
  
  
  ************
  Node Summary
  ************
                                           Invert      Max.    Ponded    External
  Name                 Type                 Elev.     Depth      Area    Inflow  
  -------------------------------------------------------------------------------
  P001                 JUNCTION              1.10     20.00       0.0
  P005                 JUNCTION              1.58     20.00       0.0
  P009                 JUNCTION              3.60     20.00       0.0
  P011                 JUNCTION              2.89     20.00       0.0
  Outlet               OUTFALL               0.00      4.00       0.0
  
  
  ************
  Link Summary
  ************
  Name             From Node        To Node          Type            Length    %Slope Roughness
  ---------------------------------------------------------------------------------------------
  P001             P001             Outlet           CONDUIT          220.0    0.5000    0.0150
  P005             P005             P001             CONDUIT          240.0    0.2000    0.0150
  P009             P009             P005             CONDUIT          505.0    0.4000    0.0240
  P011             P011             P005             CONDUIT          655.0    0.2000    0.0240
  
  
  *********************
  Cross Section Summary
  *********************
                                        Full     Full     Hyd.     Max.   No. of     Full
  Conduit          Shape               Depth     Area     Rad.    Width  Barrels     Flow
  ---------------------------------------------------------------------------------------
  P001             CIRCULAR             4.00    12.57     1.00     4.00        1    88.03
  P005             CIRCULAR             3.00     7.07     0.75     3.00        1    25.85
  P009             CIRCULAR             2.25     3.98     0.56     2.25        1    10.61
  P011             CIRCULAR             2.50     4.91     0.62     2.50        1     9.94
  
  
  ****************
  Analysis Options
  ****************
  Flow Units ............... CFS
  Process Models:
    Rainfall/Runoff ........ YES
    RDII ................... NO
    Snowmelt ............... NO
    Groundwater ............ NO
    Flow Routing ........... YES
    Ponding Allowed ........ NO
    Water Quality .......... YES
  Infiltration Method ...... GREEN_AMPT
  Flow Routing Method ...... DYNWAVE
  Surcharge Method ......... EXTRAN
  Starting Date ............ 07/15/1977 06:30:00
  Ending Date .............. 07/15/1977 10:15:00
  Antecedent Dry Days ...... 7.0
  Report Time Step ......... 00:01:00
  Wet Time Step ............ 00:01:00
  Dry Time Step ............ 00:05:00
  Routing Time Step ........ 30.00 sec
  Variable Time Step ....... YES
  Maximum Trials ........... 8
  Number of Threads ........ 1
  Head Tolerance ........... 0.005000 ft
  
  
  *********************
  Control Actions Taken
  *********************
   07/15/1977: 06:30:00 Link P001 setting changed to   0.00 by Control ValveOpen1
   07/15/1977: 07:30:14 Link P001 setting changed to   1.00 by Control ValveOpen2
   07/15/1977: 08:30:36 Link P001 setting changed to   0.00 by Control ValveOpen1
   07/15/1977: 09:30:36 Link P001 setting changed to   1.00 by Control ValveOpen2

  
  **************************        Volume         Depth
  Runoff Quantity Continuity     acre-feet        inches
  **************************     ---------       -------
  Total Precipitation ......         1.855         1.510
  Evaporation Loss .........         0.024         0.019
  Infiltration Loss ........         0.867         0.706
  Surface Runoff ...........         0.945         0.769
  Final Storage ............         0.021         0.017
  Continuity Error (%) .....        -0.061
  
  
  **************************           COD        TOTSOL        TOTNIT           TSS           PO4
  Runoff Quality Continuity            lbs           lbs           lbs           lbs           lbs
  **************************    ----------    ----------    ----------    ----------    ----------
  Initial Buildup ..........      5056.849     13379.165       125.370     13379.165       103.603
  Surface Buildup ..........        70.939       209.295         1.233        23.243         0.953
  Wet Deposition ...........        25.207        25.207         1.512        25.207         0.010
  Sweeping Removal .........         0.000         0.000         0.000         0.000         0.000
  Infiltration Loss ........        11.781        11.781         0.707        11.781         0.005
  BMP Removal ..............         0.000         0.000         0.000         0.000         0.000
  Surface Runoff ...........      3423.400      9038.583        36.250     13415.240        50.197
  Remaining Buildup ........      1717.505      4562.994        91.140         0.285        54.365
  Continuity Error (%) .....         0.006         0.002         0.014         0.002         0.000
  
  
  **************************        Volume        Volume
  Flow Routing Continuity        acre-feet      10^6 gal
  **************************     ---------     ---------
  Dry Weather Inflow .......         0.000         0.000
  Wet Weather Inflow .......         0.943         0.307
  Groundwater Inflow .......         0.000         0.000
  RDII Inflow ..............         0.000         0.000
  External Inflow ..........         0.000         0.000
  External Outflow .........         0.946         0.308
  Flooding Loss ............         0.000         0.000
  Evaporation Loss .........         0.000         0.000
  Exfiltration Loss ........         0.000         0.000
  Initial Stored Volume ....         0.000         0.000
  Final Stored Volume ......         0.000         0.000
  Continuity Error (%) .....        -0.311
  
  
  **************************           COD        TOTSOL        TOTNIT           TSS           PO4
  Quality Routing Continuity           lbs           lbs           lbs           lbs           lbs
  **************************    ----------    ----------    ----------    ----------    ----------
  Dry Weather Inflow .......         0.000         0.000         0.000         0.000         0.000
  Wet Weather Inflow .......      3418.294      9025.100        36.186     13412.526        50.091
  Groundwater Inflow .......         0.000         0.000         0.000         0.000         0.000
  RDII Inflow ..............         0.000         0.000         0.000         0.000         0.000
  External Inflow ..........         0.000         0.000         0.000         0.000         0.000
  External Outflow .........      2588.801      6835.954        26.063     12907.826        36.377
  Flooding Loss ............         0.000         0.000         0.000         0.000         0.000
  Exfiltration Loss ........         0.000         0.000         0.000         0.000         0.000
  Mass Reacted .............      1018.475      2688.909        11.007      2089.949        15.203
  Initial Stored Mass ......         0.000         0.000         0.000         0.000         0.000
  Final Stored Mass ........         1.363         3.604         0.005         0.088         0.007
  Continuity Error (%) .....        -5.568        -5.577        -2.457       -11.820        -2.985
  
  
  *************************
  Highest Continuity Errors
  *************************
  Node P005 (2.64%)
  Node P001 (-1.94%)
  
  
  ***************************
  Time-Step Critical Elements
  ***************************
  Link P001 (35.24%)
  
  
  ********************************
  Highest Flow Instability Indexes
  ********************************
  Link P005 (9)
  Link P001 (1)
  Link P009 (1)
  Link P011 (1)
  
  
  *********************************
  Most Frequent Nonconverging Nodes
  *********************************
  Node P005 (3.62%)
  Node Outlet (3.62%)
  Node P001 (3.24%)
  Node P011 (3.05%)
  Node P009 (2.86%)
  
  
  *************************
  Routing Time Step Summary
  *************************
  Minimum Time Step           :     7.54 sec
  Average Time Step           :    25.71 sec
  Maximum Time Step           :    30.00 sec
  % of Time in Steady State   :     0.00
  Average Iterations per Step :     2.34
  % of Steps Not Converging   :     3.62
  Time Step Frequencies       :
     30.000 - 13.228 sec      :    98.47 %
     13.228 -  5.833 sec      :     1.53 %
      5.833 -  2.572 sec      :     0.00 %
      2.572 -  1.134 sec      :     0.00 %
      1.134 -  0.500 sec      :     0.00 %
  
  
  ***************************
  Subcatchment Runoff Summary
  ***************************
  
  ------------------------------------------------------------------------------------------------------------------------------
                            Total      Total      Total      Total     Imperv       Perv      Total       Total     Peak  Runoff
                           Precip      Runon       Evap      Infil     Runoff     Runoff     Runoff      Runoff   Runoff   Coeff
  Subcatchment                 in         in         in         in         in         in         in    10^6 gal      CFS
  ------------------------------------------------------------------------------------------------------------------------------
  CA-1                       1.51       0.00       0.02       0.78       0.57       0.13       0.69        0.09     8.59   0.459
  CA-7                       1.51       0.00       0.02       0.65       0.70       0.12       0.82        0.04     3.31   0.546
  CA-8                       1.51       0.00       0.02       0.68       0.68       0.11       0.79        0.10     8.97   0.524
  CA-11                      1.51       0.00       0.02       0.65       0.68       0.14       0.82        0.08     7.54   0.544
  
  
  ****************************
  Subcatchment Washoff Summary
  ****************************
  
  ------------------------------------------------------------------------------------------
                                 COD        TOTSOL        TOTNIT           TSS           PO4
  Subcatchment                   lbs           lbs           lbs           lbs           lbs
  ------------------------------------------------------------------------------------------
  CA-1                      1134.624      2996.214        10.672      4548.362        14.957
  CA-7                       377.930       997.700         4.304      1455.094         5.912
  CA-8                      1071.450      2828.763        11.597      4153.988        16.024
  CA-11                      839.397      2215.906         9.677      3257.796        13.304
  ------------------------------------------------------------------------------------------
  System                    3423.400      9038.583        36.250     13415.240        50.197
  
  
  ******************
  Node Depth Summary
  ******************
  
  ---------------------------------------------------------------------------------
                                 Average  Maximum  Maximum  Time of Max    Reported
                                   Depth    Depth      HGL   Occurrence   Max Depth
  Node                 Type         Feet     Feet     Feet  days hr:min        Feet
  ---------------------------------------------------------------------------------
  P001                 JUNCTION     0.78     7.61     8.71     0  00:00        7.49
  P005                 JUNCTION     0.74     7.13     8.71     0  00:00        7.01
  P009                 JUNCTION     0.45     5.12     8.72     0  00:00        5.00
  P011                 JUNCTION     0.50     5.82     8.71     0  00:00        5.70
  Outlet               OUTFALL      0.48     3.07     3.07     0  00:00        2.06
  
  
  *******************
  Node Inflow Summary
  *******************
  
  -------------------------------------------------------------------------------------------------
                                  Maximum  Maximum                  Lateral       Total        Flow
                                  Lateral    Total  Time of Max      Inflow      Inflow     Balance
                                   Inflow   Inflow   Occurrence      Volume      Volume       Error
  Node                 Type           CFS      CFS  days hr:min    10^6 gal    10^6 gal     Percent
  -------------------------------------------------------------------------------------------------
  P001                 JUNCTION      8.59    27.56     0  00:01      0.0708       0.307      -1.908
  P005                 JUNCTION      3.31    19.05     0  00:25      0.0266       0.222       2.710
  P009                 JUNCTION      8.97     8.97     0  00:25       0.073      0.0986      -0.800
  P011                 JUNCTION      7.54     7.54     0  00:25      0.0595      0.0822       0.120
  Outlet               OUTFALL       0.00   103.16     0  00:00           0       0.308       0.000
  
  
  **********************
  Node Surcharge Summary
  **********************
  
  Surcharging occurs when water rises above the top of the highest conduit.
  ---------------------------------------------------------------------
                                               Max. Height   Min. Depth
                                   Hours       Above Crown    Below Rim
  Node                 Type      Surcharged           Feet         Feet
  ---------------------------------------------------------------------
  P001                 JUNCTION        0.01          3.605       12.395
  P005                 JUNCTION        0.02          4.126       12.874
  P009                 JUNCTION        0.02          2.871       14.879
  P011                 JUNCTION        0.02          3.321       14.179
  
  
  *********************
  Node Flooding Summary
  *********************
  
  No nodes were flooded.
  
  
  ***********************
  Outfall Loading Summary
  ***********************
  
  ---------------------------------------------------------------------------------------------------------------------------------
                         Flow       Avg       Max       Total         Total         Total         Total         Total         Total
                         Freq      Flow      Flow      Volume           COD        TOTSOL        TOTNIT           TSS           PO4
  Outfall Node           Pcnt       CFS       CFS    10^6 gal           lbs           lbs           lbs           lbs           lbs
  ---------------------------------------------------------------------------------------------------------------------------------
  Outlet                69.98      9.17    103.16       0.308      2779.945      7341.299        26.588     15123.667        37.094
  ---------------------------------------------------------------------------------------------------------------------------------
  System                69.98      9.17    103.16       0.308      2779.945      7341.299        26.588     15123.667        37.094
  
  
  ********************
  Link Flow Summary
  ********************
  
  -----------------------------------------------------------------------------
                                 Maximum  Time of Max   Maximum    Max/    Max/
                                  |Flow|   Occurrence   |Veloc|    Full    Full
  Link                 Type          CFS  days hr:min    ft/sec    Flow   Depth
  -----------------------------------------------------------------------------
  P001                 CONDUIT    103.16     0  00:00      8.81    1.17    0.88
  P005                 CONDUIT     26.40     0  00:01      5.11    1.02    1.00
  P009                 CONDUIT      8.73     0  00:25      2.74    0.82    1.00
  P011                 CONDUIT      7.11     0  00:25      2.02    0.72    1.00
  
  
  ***************************
  Flow Classification Summary
  ***************************
  
  -------------------------------------------------------------------------------------
                      Adjusted    ---------- Fraction of Time in Flow Class ---------- 
                       /Actual         Up    Down  Sub   Sup   Up    Down  Norm  Inlet 
  Conduit               Length    Dry  Dry   Dry   Crit  Crit  Crit  Crit  Ltd   Ctrl  
  -------------------------------------------------------------------------------------
  P001                    1.00   0.00  0.00  0.00  0.50  0.50  0.00  0.00  0.00  0.00
  P005                    1.00   0.00  0.00  0.00  1.00  0.00  0.00  0.00  0.02  0.00
  P009                    1.00   0.00  0.00  0.00  1.00  0.00  0.00  0.00  0.99  0.00
  P011                    1.00   0.00  0.00  0.00  1.00  0.00  0.00  0.00  0.98  0.00
  
  
  *************************
  Conduit Surcharge Summary
  *************************
  
  ----------------------------------------------------------------------------
                                                           Hours        Hours 
                         --------- Hours Full --------   Above Full   Capacity
  Conduit                Both Ends  Upstream  Dnstream   Normal Flow   Limited
  ----------------------------------------------------------------------------
  P001                        0.01      0.01      0.01      0.01         0.01
  P005                        0.02      0.02      0.02      0.01         0.01
  P009                        0.02      0.02      0.04      0.01         0.01
  P011                        0.01      0.01      0.03      0.01         0.01
  
  
  ***************************
  Link Pollutant Load Summary
  ***************************
  
  ------------------------------------------------------------------------------------------
                                 COD        TOTSOL        TOTNIT           TSS           PO4
  Link                           lbs           lbs           lbs           lbs           lbs
  ------------------------------------------------------------------------------------------
  P001                      2779.945      7341.299        26.588     1.512e+04        37.094
  P005                      1503.641      3970.408        15.602      8208.988        21.646
  P009                       119.005       314.379         0.858      3563.221         1.195
  P011                       946.455      2499.167        10.207      6202.481        14.375
  

  Analysis begun on:  Wed Jun 24 17:35:13 2026
  Analysis ended on:  Wed Jun 24 17:35:13 2026
  Total elapsed time: < 1 sec