
  EPA STORM WATER MANAGEMENT MODEL - VERSION 5.2 (Build 5.2.4)
  ------------------------------------------------------------

       Extran with surcharge in 2 foot circular conduits 
       SWMM CRADA Example 1 
  WARNING 04: minimum elevation drop used for Conduit pipe1
  WARNING 04: minimum elevation drop used for Conduit pipe2
  WARNING 04: minimum elevation drop used for Conduit pipe3
  WARNING 04: minimum elevation drop used for Conduit pipe4
  WARNING 04: minimum elevation drop used for Conduit pipe5
  WARNING 04: minimum elevation drop used for Conduit pipe6
  WARNING 04: minimum elevation drop used for Conduit pipe7
  WARNING 04: minimum elevation drop used for Conduit pipe8
  WARNING 04: minimum elevation drop used for Conduit pipe9
  
  ****************
  Analysis Options
  ****************
  Flow Units ............... CFS
  Process Models:
    Rainfall/Runoff ........ NO
    RDII ................... NO
    Snowmelt ............... NO
    Groundwater ............ NO
    Flow Routing ........... YES
    Ponding Allowed ........ NO
    Water Quality .......... NO
  Flow Routing Method ...... DYNWAVE
  Surcharge Method ......... EXTRAN
  Starting Date ............ 02/22/2002 00:00:00
  Ending Date .............. 02/22/2002 01:40:00
  Antecedent Dry Days ...... 0.0
  Report Time Step ......... 00:01:00
  Routing Time Step ........ 30.00 sec
  Variable Time Step ....... YES
  Maximum Trials ........... 8
  Number of Threads ........ 1
  Head Tolerance ........... 0.001000 ft
  
  
  **************************        Volume        Volume
  Flow Routing Continuity        acre-feet      10^6 gal
  **************************     ---------     ---------
  Dry Weather Inflow .......         0.000         0.000
  Wet Weather Inflow .......         0.000         0.000
  Groundwater Inflow .......         0.000         0.000
  RDII Inflow ..............         0.000         0.000
  External Inflow ..........         1.908         0.622
  External Outflow .........         1.793         0.584
  Flooding Loss ............         0.000         0.000
  Evaporation Loss .........         0.000         0.000
  Exfiltration Loss ........         0.000         0.000
  Initial Stored Volume ....         0.000         0.000
  Final Stored Volume ......         0.078         0.026
  Continuity Error (%) .....         1.899
  
  
  ***************************
  Time-Step Critical Elements
  ***************************
  Link outlet (87.76%)
  Link pipe1 (4.75%)
  Link pipe6 (1.78%)
  Link pipe7 (1.63%)
  Link pipe4 (1.19%)
  
  
  ********************************
  Highest Flow Instability Indexes
  ********************************
  All links are stable.
  
  
  *********************************
  Most Frequent Nonconverging Nodes
  *********************************
  Node Outlet (12.61%)
  Node Inflow (9.35%)
  Node mid1 (8.83%)
  Node mid2 (7.86%)
  Node mid3 (7.12%)
  
  
  *************************
  Routing Time Step Summary
  *************************
  Minimum Time Step           :     0.50 sec
  Average Time Step           :     4.45 sec
  Maximum Time Step           :    30.00 sec
  % of Time in Steady State   :     0.00
  Average Iterations per Step :     2.96
  % of Steps Not Converging   :    12.61
  Time Step Frequencies       :
     30.000 - 13.228 sec      :     0.37 %
     13.228 -  5.833 sec      :     4.01 %
      5.833 -  2.572 sec      :    92.43 %
      2.572 -  1.134 sec      :     2.60 %
      1.134 -  0.500 sec      :     0.59 %
  
  
  ******************
  Node Depth Summary
  ******************
  
  ---------------------------------------------------------------------------------
                                 Average  Maximum  Maximum  Time of Max    Reported
                                   Depth    Depth      HGL   Occurrence   Max Depth
  Node                 Type         Feet     Feet     Feet  days hr:min        Feet
  ---------------------------------------------------------------------------------
  Inflow               JUNCTION     7.09     7.42    17.42     0  00:16        7.38
  mid1                 JUNCTION     6.78     7.10    17.10     0  00:16        7.06
  mid2                 JUNCTION     6.45     6.78    16.78     0  00:16        6.75
  mid3                 JUNCTION     6.13     6.46    16.46     0  00:16        6.43
  mid4                 JUNCTION     5.81     6.16    16.16     0  00:16        6.11
  mid5                 JUNCTION     5.49     5.80    15.80     0  00:16        5.79
  mid6                 JUNCTION     5.18     5.46    15.46     0  00:17        5.45
  mid7                 JUNCTION     4.86     5.13    15.13     0  00:25        5.13
  mid8                 JUNCTION     4.53     4.83    14.83     0  00:18        4.82
  mid9                 JUNCTION     3.54     3.78    13.78     0  00:18        3.78
  side1                JUNCTION     6.48     7.11    17.11     0  00:16        7.06
  side2                JUNCTION     6.14     7.16    17.16     0  00:13        6.75
  side3                JUNCTION     5.80     7.77    17.77     0  00:14        6.43
  side4                JUNCTION     5.46     7.20    17.20     0  00:15        6.59
  side5                JUNCTION     5.12     6.21    16.21     0  00:16        5.95
  side6                JUNCTION     4.75     5.60    15.60     0  00:17        5.50
  side7                JUNCTION     4.28     5.18    15.18     0  00:23        5.18
  side8                JUNCTION     0.00     0.00    10.00     0  00:00        0.00
  Outlet               OUTFALL      0.72     0.78    10.78     0  00:25        0.78
  
  
  *******************
  Node Inflow Summary
  *******************
  
  -------------------------------------------------------------------------------------------------
                                  Maximum  Maximum                  Lateral       Total        Flow
                                  Lateral    Total  Time of Max      Inflow      Inflow     Balance
                                   Inflow   Inflow   Occurrence      Volume      Volume       Error
  Node                 Type           CFS      CFS  days hr:min    10^6 gal    10^6 gal     Percent
  -------------------------------------------------------------------------------------------------
  Inflow               JUNCTION     15.00    15.00     0  00:15       0.622       0.622       0.195
  mid1                 JUNCTION      0.00    15.06     0  00:15           0        0.62       0.615
  mid2                 JUNCTION      0.00    15.15     0  00:15           0       0.616       0.621
  mid3                 JUNCTION      0.00    15.32     0  00:14           0       0.611       0.637
  mid4                 JUNCTION      0.00    15.38     0  00:14           0       0.607       0.630
  mid5                 JUNCTION      0.00    15.51     0  00:16           0       0.603       0.620
  mid6                 JUNCTION      0.00    15.54     0  00:16           0       0.598       0.663
  mid7                 JUNCTION      0.00    15.20     0  00:18           0       0.594       0.657
  mid8                 JUNCTION      0.00    15.03     0  00:25           0       0.589       0.698
  mid9                 JUNCTION      0.00    15.03     0  00:25           0       0.585       0.125
  side1                JUNCTION      0.00     1.27     0  00:12           0    0.000777    1169.951
  side2                JUNCTION      0.00     1.62     0  00:13           0    0.000745    1845.428
  side3                JUNCTION      0.00     1.58     0  00:14           0    0.000769    1633.639
  side4                JUNCTION      0.00     1.83     0  00:14           0    0.000747     715.525
  side5                JUNCTION      0.00     1.30     0  00:15           0     0.00087     283.622
  side6                JUNCTION      0.00     0.80     0  00:16           0    0.000868     198.744
  side7                JUNCTION      0.00     0.21     0  00:18           0    0.000613     337.371
  side8                JUNCTION      0.00     0.00     0  00:00           0           0       0.000 gal
  Outlet               OUTFALL       0.00    15.03     0  00:25           0       0.584       0.000
  
  
  **********************
  Node Surcharge Summary
  **********************
  
  Surcharging occurs when water rises above the top of the highest conduit.
  ---------------------------------------------------------------------
                                               Max. Height   Min. Depth
                                   Hours       Above Crown    Below Rim
  Node                 Type      Surcharged           Feet         Feet
  ---------------------------------------------------------------------
  Inflow               JUNCTION        1.50          2.424        2.576
  mid1                 JUNCTION        1.49          2.105        2.895
  mid2                 JUNCTION        1.48          1.776        3.224
  mid3                 JUNCTION        1.47          1.458        3.542
  mid4                 JUNCTION        1.46          1.161        3.839
  mid5                 JUNCTION        1.45          0.798        4.202
  mid6                 JUNCTION        1.43          0.457        4.543
  mid7                 JUNCTION        1.40          0.131        4.869
  side1                JUNCTION        1.44          1.111        2.889
  side2                JUNCTION        1.43          1.164        2.836
  side3                JUNCTION        1.42          1.768        2.232
  side4                JUNCTION        1.39          1.198        2.802
  side5                JUNCTION        0.01          0.210        3.790
  
  
  *********************
  Node Flooding Summary
  *********************
  
  No nodes were flooded.
  
  
  ***********************
  Outfall Loading Summary
  ***********************
  
  -----------------------------------------------------------
                         Flow       Avg       Max       Total
                         Freq      Flow      Flow      Volume
  Outfall Node           Pcnt       CFS       CFS    10^6 gal
  -----------------------------------------------------------
  Outlet                93.77     14.62     15.03       0.584
  -----------------------------------------------------------
  System                93.77     14.62     15.03       0.584
  
  
  ********************
  Link Flow Summary
  ********************
  
  -----------------------------------------------------------------------------
                                 Maximum  Time of Max   Maximum    Max/    Max/
                                  |Flow|   Occurrence   |Veloc|    Full    Full
  Link                 Type          CFS  days hr:min    ft/sec    Flow   Depth
  -----------------------------------------------------------------------------
  pipe1                CONDUIT     15.05     0  00:15      4.79   17.80    1.00
  side1                CONDUIT      1.27     0  00:12      2.08    0.13    1.00
  pipe2                CONDUIT     15.13     0  00:15      4.81   17.89    1.00
  side2                CONDUIT      1.62     0  00:13      2.63    0.17    1.00
  pipe3                CONDUIT     15.21     0  00:15      4.84   17.99    1.00
  side3                CONDUIT      1.58     0  00:14      2.58    0.17    1.00
  pipe4                CONDUIT     15.38     0  00:14      4.90   18.20    1.00
  side4                CONDUIT      1.83     0  00:14      2.74    0.19    1.00
  pipe5                CONDUIT     15.36     0  00:15      4.89   18.17    1.00
  side5                CONDUIT      1.30     0  00:15      2.21    0.14    1.00
  pipe6                CONDUIT     15.54     0  00:16      4.95   18.38    1.00
  side6                CONDUIT      0.80     0  00:16      1.63    0.08    0.80
  pipe7                CONDUIT     15.20     0  00:18      4.84   17.98    1.00
  side7                CONDUIT      0.21     0  00:18      0.47    0.02    0.59
  pipe8                CONDUIT     15.03     0  00:25      4.86   17.78    0.96
  side8                CONDUIT      0.00     0  00:00      0.00    0.00    0.50
  pipe9                CONDUIT     15.03     0  00:25      5.54   17.78    0.81
  outlet               CONDUIT     15.03     0  00:25     13.16    0.32    0.39
  
  
  ***************************
  Flow Classification Summary
  ***************************
  
  -------------------------------------------------------------------------------------
                      Adjusted    ---------- Fraction of Time in Flow Class ---------- 
                       /Actual         Up    Down  Sub   Sup   Up    Down  Norm  Inlet 
  Conduit               Length    Dry  Dry   Dry   Crit  Crit  Crit  Crit  Ltd   Ctrl  
  -------------------------------------------------------------------------------------
  pipe1                   1.00   0.02  0.00  0.00  0.97  0.00  0.00  0.02  0.00  0.00
  side1                   1.00   0.02  0.09  0.00  0.87  0.00  0.02  0.00  0.00  0.00
  pipe2                   1.00   0.03  0.00  0.00  0.95  0.00  0.00  0.03  0.00  0.00
  side2                   1.00   0.03  0.09  0.00  0.87  0.00  0.02  0.00  0.00  0.00
  pipe3                   1.00   0.04  0.00  0.00  0.94  0.00  0.00  0.02  0.00  0.00
  side3                   1.00   0.04  0.08  0.00  0.86  0.00  0.02  0.00  0.00  0.00
  pipe4                   1.00   0.05  0.00  0.00  0.92  0.00  0.00  0.02  0.00  0.00
  side4                   1.00   0.06  0.07  0.00  0.85  0.00  0.02  0.00  0.00  0.00
  pipe5                   1.00   0.07  0.00  0.00  0.91  0.00  0.00  0.02  0.00  0.00
  side5                   1.00   0.07  0.06  0.00  0.84  0.00  0.02  0.00  0.00  0.00
  pipe6                   1.00   0.08  0.00  0.00  0.90  0.00  0.00  0.02  0.00  0.00
  side6                   1.00   0.08  0.07  0.00  0.83  0.00  0.02  0.00  0.00  0.00
  pipe7                   1.00   0.09  0.00  0.00  0.89  0.00  0.00  0.02  0.00  0.00
  side7                   1.00   0.09  0.07  0.00  0.78  0.00  0.07  0.00  0.00  0.00
  pipe8                   1.00   0.10  0.00  0.00  0.88  0.00  0.00  0.02  0.00  0.00
  side8                   1.00   0.10  0.90  0.00  0.00  0.00  0.00  0.00  0.00  0.00
  pipe9                   1.00   0.11  0.00  0.00  0.00  0.00  0.00  0.89  0.00  0.00
  outlet                  1.00   0.11  0.00  0.00  0.00  0.89  0.00  0.00  0.07  0.00
  
  
  *************************
  Conduit Surcharge Summary
  *************************
  
  ----------------------------------------------------------------------------
                                                           Hours        Hours 
                         --------- Hours Full --------   Above Full   Capacity
  Conduit                Both Ends  Upstream  Dnstream   Normal Flow   Limited
  ----------------------------------------------------------------------------
  pipe1                       1.49      1.50      1.49      1.64         1.49
  side1                       1.44      1.44      1.49      0.01         0.01
  pipe2                       1.48      1.49      1.48      1.61         1.48
  side2                       1.43      1.43      1.48      0.01         0.01
  pipe3                       1.47      1.48      1.47      1.59         1.47
  side3                       1.42      1.42      1.47      0.01         0.01
  pipe4                       1.46      1.47      1.46      1.57         1.46
  side4                       1.39      1.39      1.46      0.01         0.01
  pipe5                       1.45      1.46      1.45      1.55         1.45
  side5                       0.01      0.01      1.45      0.01         0.01
  pipe6                       1.43      1.45      1.43      1.53         1.43
  side6                       0.01      0.01      1.43      0.01         0.01
  pipe7                       1.40      1.43      1.40      1.51         1.40
  side7                       0.01      0.01      1.41      0.01         0.01
  pipe8                       0.01      1.40      0.01      1.50         0.01
  pipe9                       0.01      0.01      0.01      1.48         0.01
  

  Analysis begun on:  Wed Jun 24 17:36:16 2026
  Analysis ended on:  Wed Jun 24 17:36:16 2026
  Total elapsed time: < 1 sec