
  EPA STORM WATER MANAGEMENT MODEL - VERSION 5.2 (Build 5.2.4)
  ------------------------------------------------------------

   SW 1 0 9A1 'BROWARD COUNTY Multi FAMILY SITE - Runoff example # 47'A2 'RUNO 
  
  *************
  Element Count
  *************
  Number of rain gages ...... 1
  Number of subcatchments ... 4
  Number of nodes ........... 5
  Number of links ........... 4
  Number of pollutants ...... 5
  Number of land uses ....... 1
  
  
  *****************
  Pollutant Summary
  *****************
                               Ppt.      GW         Kdecay
  Name                 Units   Concen.   Concen.    1/days    CoPollutant
  -----------------------------------------------------------------------
  COD                   MG/L      5.00      0.00      0.00
  TOTSOL                MG/L      5.00      0.00      0.00
  TOTNIT                MG/L      0.30      0.00      0.00
  TSS                   MG/L      5.00      0.00      0.00
  PO4                   MG/L      0.00      0.00      0.00
  
  
  ***************
  Landuse Summary
  ***************
                         Sweeping   Maximum      Last
  Name                   Interval   Removal     Swept
  ---------------------------------------------------
  HOUSING                    0.00      0.00      0.00
  
  
  ****************
  Raingage Summary
  ****************
                                                      Data       Recording
  Name                 Data Source                    Type       Interval 
  ------------------------------------------------------------------------
  GAGE1                RainSeries1                    INTENSITY    5 min.
  
  
  ********************
  Subcatchment Summary
  ********************
  Name                       Area     Width   %Imperv    %Slope Rain Gage            Outlet              
  -----------------------------------------------------------------------------------------------------------
  CA-1                       5.00    600.00     39.00    2.7000 GAGE1                P001                
  CA-7                       1.60    200.00     48.60    2.7000 GAGE1                P005                
  CA-8                       4.57    500.00     46.70    2.7000 GAGE1                P009                
  CA-11                      3.58    600.00     47.00    2.7000 GAGE1                P011                
  
  
  ************
  Node Summary
  ************
                                           Invert      Max.    Ponded    External
  Name                 Type                 Elev.     Depth      Area    Inflow  
  -------------------------------------------------------------------------------
  P001                 JUNCTION              1.10     20.00       0.0
  P005                 JUNCTION              1.58     20.00       0.0
  P009                 JUNCTION              3.60     20.00       0.0
  P011                 JUNCTION              2.89     20.00       0.0
  Outlet               OUTFALL               0.00      4.00       0.0
  
  
  ************
  Link Summary
  ************
  Name             From Node        To Node          Type            Length    %Slope Roughness
  ---------------------------------------------------------------------------------------------
  P001             P001             Outlet           CONDUIT          220.0    0.5000    0.0150
  P005             P005             P001             CONDUIT          240.0    0.2000    0.0150
  P009             P009             P005             CONDUIT          505.0    0.4000    0.0240
  P011             P011             P005             CONDUIT          655.0    0.2000    0.0240
  
  
  *********************
  Cross Section Summary
  *********************
                                        Full     Full     Hyd.     Max.   No. of     Full
  Conduit          Shape               Depth     Area     Rad.    Width  Barrels     Flow
  ---------------------------------------------------------------------------------------
  P001             CIRCULAR             4.00    12.57     1.00     4.00        1    88.03
  P005             CIRCULAR             3.00     7.07     0.75     3.00        1    25.85
  P009             CIRCULAR             2.25     3.98     0.56     2.25        1    10.61
  P011             CIRCULAR             2.50     4.91     0.62     2.50        1     9.94
  
  
  ****************
  Analysis Options
  ****************
  Flow Units ............... CFS
  Process Models:
    Rainfall/Runoff ........ YES
    RDII ................... NO
    Snowmelt ............... NO
    Groundwater ............ NO
    Flow Routing ........... YES
    Ponding Allowed ........ NO
    Water Quality .......... YES
  Infiltration Method ...... GREEN_AMPT
  Flow Routing Method ...... DYNWAVE
  Surcharge Method ......... EXTRAN
  Starting Date ............ 07/15/1977 06:30:00
  Ending Date .............. 07/15/1977 10:15:00
  Antecedent Dry Days ...... 7.0
  Report Time Step ......... 00:05:00
  Wet Time Step ............ 00:05:00
  Dry Time Step ............ 00:05:00
  Routing Time Step ........ 30.00 sec
  Variable Time Step ....... YES
  Maximum Trials ........... 8
  Number of Threads ........ 1
  Head Tolerance ........... 0.005000 ft
  
  
  *********************
  Control Actions Taken
  *********************
   07/15/1977: 06:30:00 Link P001 setting changed to   0.00 by Control ValveOpen1
   07/15/1977: 07:30:03 Link P001 setting changed to   1.00 by Control ValveOpen2
   07/15/1977: 08:30:32 Link P001 setting changed to   0.00 by Control ValveOpen1
   07/15/1977: 09:30:46 Link P001 setting changed to   1.00 by Control ValveOpen2

  
  **************************        Volume         Depth
  Runoff Quantity Continuity     acre-feet        inches
  **************************     ---------       -------
  Total Precipitation ......         2.051         1.669
  Evaporation Loss .........         0.020         0.016
  Infiltration Loss ........         0.764         0.622
  Surface Runoff ...........         1.333         1.085
  Final Storage ............         0.022         0.018
  Continuity Error (%) .....        -4.347
  
  
  **************************           COD        TOTSOL        TOTNIT           TSS           PO4
  Runoff Quality Continuity            lbs           lbs           lbs           lbs           lbs
  **************************    ----------    ----------    ----------    ----------    ----------
  Initial Buildup ..........      5056.849     13379.165       125.370     13379.165       103.603
  Surface Buildup ..........        69.507       138.034         1.518        23.242         1.182
  Wet Deposition ...........        27.864        27.864         1.672        27.864         0.011
  Sweeping Removal .........         0.000         0.000         0.000         0.000         0.000
  Infiltration Loss ........        10.387        10.387         0.623        10.387         0.004
  BMP Removal ..............         0.000         0.000         0.000         0.000         0.000
  Surface Runoff ...........      4879.595     13535.317        61.126     13420.525        79.732
  Remaining Buildup ........       265.176         0.297        66.868         0.297        25.061
  Continuity Error (%) .....        -0.018        -0.007        -0.044        -0.007         0.000
  
  
  **************************        Volume        Volume
  Flow Routing Continuity        acre-feet      10^6 gal
  **************************     ---------     ---------
  Dry Weather Inflow .......         0.000         0.000
  Wet Weather Inflow .......         1.329         0.433
  Groundwater Inflow .......         0.000         0.000
  RDII Inflow ..............         0.000         0.000
  External Inflow ..........         0.000         0.000
  External Outflow .........         0.887         0.289
  Flooding Loss ............         0.442         0.144
  Evaporation Loss .........         0.000         0.000
  Exfiltration Loss ........         0.000         0.000
  Initial Stored Volume ....         0.000         0.000
  Final Stored Volume ......         0.001         0.000
  Continuity Error (%) .....        -0.077
  
  
  **************************           COD        TOTSOL        TOTNIT           TSS           PO4
  Quality Routing Continuity           lbs           lbs           lbs           lbs           lbs
  **************************    ----------    ----------    ----------    ----------    ----------
  Dry Weather Inflow .......         0.000         0.000         0.000         0.000         0.000
  Wet Weather Inflow .......      4828.799     13328.982        60.850     13459.141        79.198
  Groundwater Inflow .......         0.000         0.000         0.000         0.000         0.000
  RDII Inflow ..............         0.000         0.000         0.000         0.000         0.000
  External Inflow ..........         0.000         0.000         0.000         0.000         0.000
  External Outflow .........      2780.513      8414.579        28.466     11061.198        39.441
  Flooding Loss ............       512.098       496.600        13.207         6.196        14.001
  Exfiltration Loss ........         0.000         0.000         0.000         0.000         0.000
  Mass Reacted .............      1426.682      3921.988        18.224      2086.901        23.568
  Initial Stored Mass ......         0.000         0.000         0.000         0.000         0.000
  Final Stored Mass ........         1.243         1.482         0.034        12.891         0.033
  Continuity Error (%) .....         2.242         3.709         1.512         2.169         2.721
  
  
  *************************
  Highest Continuity Errors
  *************************
  Node P005 (5.58%)
  Node P001 (-3.95%)
  
  
  ***************************
  Time-Step Critical Elements
  ***************************
  Link P001 (23.70%)
  Link P005 (6.36%)
  
  
  ********************************
  Highest Flow Instability Indexes
  ********************************
  Link P005 (17)
  Link P009 (8)
  Link P011 (8)
  Link P001 (1)
  
  
  *********************************
  Most Frequent Nonconverging Nodes
  *********************************
  Node Outlet (5.59%)
  Node P011 (5.01%)
  Node P009 (4.82%)
  Node P005 (3.85%)
  Node P001 (3.28%)
  
  
  *************************
  Routing Time Step Summary
  *************************
  Minimum Time Step           :     2.06 sec
  Average Time Step           :    26.01 sec
  Maximum Time Step           :    30.00 sec
  % of Time in Steady State   :     0.00
  Average Iterations per Step :     2.61
  % of Steps Not Converging   :     5.59
  Time Step Frequencies       :
     30.000 - 13.228 sec      :    94.40 %
     13.228 -  5.833 sec      :     4.83 %
      5.833 -  2.572 sec      :     0.58 %
      2.572 -  1.134 sec      :     0.19 %
      1.134 -  0.500 sec      :     0.00 %
  
  
  ***************************
  Subcatchment Runoff Summary
  ***************************
  
  ------------------------------------------------------------------------------------------------------------------------------
                            Total      Total      Total      Total     Imperv       Perv      Total       Total     Peak  Runoff
                           Precip      Runon       Evap      Infil     Runoff     Runoff     Runoff      Runoff   Runoff   Coeff
  Subcatchment                 in         in         in         in         in         in         in    10^6 gal      CFS
  ------------------------------------------------------------------------------------------------------------------------------
  CA-1                       1.67       0.00       0.02       0.68       0.65       0.38       1.03        0.14    12.74   0.617
  CA-7                       1.67       0.00       0.02       0.57       0.81       0.32       1.13        0.05     4.14   0.676
  CA-8                       1.67       0.00       0.02       0.60       0.77       0.33       1.11        0.14    11.79   0.665
  CA-11                      1.67       0.00       0.02       0.59       0.78       0.33       1.11        0.11     9.25   0.666
  
  
  ****************************
  Subcatchment Washoff Summary
  ****************************
  
  ------------------------------------------------------------------------------------------
                                 COD        TOTSOL        TOTNIT           TSS           PO4
  Subcatchment                   lbs           lbs           lbs           lbs           lbs
  ------------------------------------------------------------------------------------------
  CA-1                      1639.484      4590.578        19.883      4550.267        26.336
  CA-7                       532.897      1467.750         6.843      1455.646         8.822
  CA-8                      1516.993      4190.626        19.261      4155.635        24.966
  CA-11                     1190.221      3286.364        15.139      3258.977        19.607
  ------------------------------------------------------------------------------------------
  System                    4879.595     13535.317        61.126     13420.525        79.732
  
  
  ******************
  Node Depth Summary
  ******************
  
  ---------------------------------------------------------------------------------
                                 Average  Maximum  Maximum  Time of Max    Reported
                                   Depth    Depth      HGL   Occurrence   Max Depth
  Node                 Type         Feet     Feet     Feet  days hr:min        Feet
  ---------------------------------------------------------------------------------
  P001                 JUNCTION     3.87    20.00    21.10     0  02:24       20.00
  P005                 JUNCTION     3.75    20.00    21.58     0  02:24       20.00
  P009                 JUNCTION     3.09    20.00    23.60     0  02:23       19.95
  P011                 JUNCTION     3.25    20.00    22.89     0  02:25       19.83
  Outlet               OUTFALL      0.33     4.00     4.00     0  03:01        1.27
  
  
  *******************
  Node Inflow Summary
  *******************
  
  -------------------------------------------------------------------------------------------------
                                  Maximum  Maximum                  Lateral       Total        Flow
                                  Lateral    Total  Time of Max      Inflow      Inflow     Balance
                                   Inflow   Inflow   Occurrence      Volume      Volume       Error
  Node                 Type           CFS      CFS  days hr:min    10^6 gal    10^6 gal     Percent
  -------------------------------------------------------------------------------------------------
  P001                 JUNCTION     12.74    44.49     0  01:00       0.139       0.422      -3.796
  P005                 JUNCTION      4.14    23.51     0  02:25      0.0489       0.308       5.910
  P009                 JUNCTION     11.79    13.03     0  02:23       0.137       0.138      -0.415
  P011                 JUNCTION      9.25     9.25     0  02:25       0.108       0.112       0.150
  Outlet               OUTFALL       0.00   203.40     0  03:01           0       0.289       0.000
  
  
  **********************
  Node Surcharge Summary
  **********************
  
  Surcharging occurs when water rises above the top of the highest conduit.
  ---------------------------------------------------------------------
                                               Max. Height   Min. Depth
                                   Hours       Above Crown    Below Rim
  Node                 Type      Surcharged           Feet         Feet
  ---------------------------------------------------------------------
  P001                 JUNCTION        0.70         16.000        0.000
  P005                 JUNCTION        0.73         17.000        0.000
  P009                 JUNCTION        0.69         17.750        0.000
  P011                 JUNCTION        0.71         17.500        0.000
  
  
  *********************
  Node Flooding Summary
  *********************
  
  Flooding refers to all water that overflows a node, whether it ponds or not.
  --------------------------------------------------------------------------
                                                             Total   Maximum
                                 Maximum   Time of Max       Flood    Ponded
                        Hours       Rate    Occurrence      Volume     Depth
  Node                 Flooded       CFS   days hr:min    10^6 gal      Feet
  --------------------------------------------------------------------------
  P001                    0.49     35.22      0  02:26       0.139     0.000
  P005                    0.03      7.62      0  02:24       0.003     0.000
  P009                    0.02      7.19      0  02:23       0.001     0.000
  P011                    0.01      1.33      0  02:25       0.000     0.000
  
  
  ***********************
  Outfall Loading Summary
  ***********************
  
  ---------------------------------------------------------------------------------------------------------------------------------
                         Flow       Avg       Max       Total         Total         Total         Total         Total         Total
                         Freq      Flow      Flow      Volume           COD        TOTSOL        TOTNIT           TSS           PO4
  Outfall Node           Pcnt       CFS       CFS    10^6 gal           lbs           lbs           lbs           lbs           lbs
  ---------------------------------------------------------------------------------------------------------------------------------
  Outlet                51.06     10.84    203.40       0.289      3064.450      9178.965        31.460     14290.038        43.234
  ---------------------------------------------------------------------------------------------------------------------------------
  System                51.06     10.84    203.40       0.289      3064.450      9178.965        31.460     14290.038        43.234
  
  
  ********************
  Link Flow Summary
  ********************
  
  -----------------------------------------------------------------------------
                                 Maximum  Time of Max   Maximum    Max/    Max/
                                  |Flow|   Occurrence   |Veloc|    Full    Full
  Link                 Type          CFS  days hr:min    ft/sec    Flow   Depth
  -----------------------------------------------------------------------------
  P001                 CONDUIT    203.40     0  03:01     16.92    2.31    0.96
  P005                 CONDUIT     35.84     0  01:00      5.27    1.39    1.00
  P009                 CONDUIT     10.79     0  02:26      2.92    1.02    1.00
  P011                 CONDUIT      9.17     0  01:01      2.01    0.92    1.00
  
  
  ***************************
  Flow Classification Summary
  ***************************
  
  -------------------------------------------------------------------------------------
                      Adjusted    ---------- Fraction of Time in Flow Class ---------- 
                       /Actual         Up    Down  Sub   Sup   Up    Down  Norm  Inlet 
  Conduit               Length    Dry  Dry   Dry   Crit  Crit  Crit  Crit  Ltd   Ctrl  
  -------------------------------------------------------------------------------------
  P001                    1.00   0.02  0.00  0.00  0.63  0.35  0.00  0.00  0.00  0.00
  P005                    1.00   0.02  0.00  0.00  0.98  0.00  0.00  0.00  0.05  0.00
  P009                    1.00   0.02  0.00  0.00  0.98  0.00  0.00  0.00  0.68  0.00
  P011                    1.00   0.02  0.00  0.00  0.98  0.00  0.00  0.00  0.64  0.00
  
  
  *************************
  Conduit Surcharge Summary
  *************************
  
  ----------------------------------------------------------------------------
                                                           Hours        Hours 
                         --------- Hours Full --------   Above Full   Capacity
  Conduit                Both Ends  Upstream  Dnstream   Normal Flow   Limited
  ----------------------------------------------------------------------------
  P001                        0.01      0.02      0.01      0.02         0.01
  P005                        0.72      0.72      0.79      0.03         0.02
  P009                        0.69      0.69      0.91      0.01         0.01
  P011                        0.70      0.70      0.82      0.01         0.01
  
  
  ***************************
  Link Pollutant Load Summary
  ***************************
  
  ------------------------------------------------------------------------------------------
                                 COD        TOTSOL        TOTNIT           TSS           PO4
  Link                           lbs           lbs           lbs           lbs           lbs
  ------------------------------------------------------------------------------------------
  P001                      3064.450      9178.965        31.460     1.429e+04        43.234
  P005                      1955.642      5423.850        23.821      8907.556        30.716
  P009                       126.755       347.178         1.574      3235.586         2.028
  P011                      1205.791      3347.108        14.477      6151.499        18.688
  

  Analysis begun on:  Wed Jun 24 17:35:13 2026
  Analysis ended on:  Wed Jun 24 17:35:13 2026
  Total elapsed time: < 1 sec