
  EPA STORM WATER MANAGEMENT MODEL - VERSION 5.2 (Build 5.2.4)
  ------------------------------------------------------------

  Scenario Run :  BASE 
  WARNING 04: minimum elevation drop used for Conduit 24BRLFWR_1
  WARNING 08: elevation drop exceeds length for Conduit 24TO20RLFWR_1
  WARNING 08: elevation drop exceeds length for Conduit 24TO20RLFWR_2
  WARNING 08: elevation drop exceeds length for Conduit 24TO20RLFWR_3
  WARNING 08: elevation drop exceeds length for Conduit 28001P
  WARNING 08: elevation drop exceeds length for Conduit 332RLF_1
  WARNING 04: minimum elevation drop used for Conduit 342FLOWCONT
  WARNING 04: minimum elevation drop used for Conduit 343FLOWCONT
  WARNING 08: elevation drop exceeds length for Conduit 39001P
  WARNING 08: elevation drop exceeds length for Conduit 3DWINFILTPIPE
  WARNING 04: minimum elevation drop used for Conduit 40CTI_1
  WARNING 04: minimum elevation drop used for Conduit 42CTIWR1_1
  WARNING 04: minimum elevation drop used for Conduit 42CTIWR1_2
  WARNING 08: elevation drop exceeds length for Conduit 66022RLFWR_DAM
  WARNING 08: elevation drop exceeds length for Conduit BRDIV1_1
  WARNING 08: elevation drop exceeds length for Conduit BRDIV3_1
  WARNING 08: elevation drop exceeds length for Conduit BRDIV_2_2
  WARNING 08: elevation drop exceeds length for Conduit BRDRIV_4_1
  WARNING 04: minimum elevation drop used for Conduit CLKPUMP_1
  WARNING 04: minimum elevation drop used for Conduit CLK_1
  WARNING 04: minimum elevation drop used for Conduit CLK_3
  WARNING 04: minimum elevation drop used for Conduit CLK_5
  WARNING 04: minimum elevation drop used for Conduit CLOSED_PIPE
  WARNING 04: minimum elevation drop used for Conduit CSO42_REGULATOR
  WARNING 04: minimum elevation drop used for Conduit I07CCTI_4
  WARNING 04: minimum elevation drop used for Conduit I07CPUMP_DIS
  WARNING 08: elevation drop exceeds length for Conduit NLTSTORAGEOVERFLOW
  WARNING 02: maximum depth increased for Node 2455415
  WARNING 02: maximum depth increased for Node 24_20C1
  WARNING 02: maximum depth increased for Node 331VLT_J2
  WARNING 02: maximum depth increased for Node 332CTI_J1
  WARNING 02: maximum depth increased for Node 332FCDS_J1
  WARNING 02: maximum depth increased for Node 332FCDS_J2
  WARNING 02: maximum depth increased for Node 332FCUS_1
  WARNING 02: maximum depth increased for Node 332FCUS_J2
  WARNING 02: maximum depth increased for Node 332FWUS_J1
  WARNING 02: maximum depth increased for Node 332FWUS_J2
  WARNING 02: maximum depth increased for Node 332RLFWR_J2
  WARNING 02: maximum depth increased for Node 332SUMP_J2
  WARNING 02: maximum depth increased for Node 332SUMP_J3
  WARNING 02: maximum depth increased for Node 342FCDS_J1
  WARNING 02: maximum depth increased for Node 6636212CD
  
  *************
  Element Count
  *************
  Number of rain gages ...... 35
  Number of subcatchments ... 793
  Number of nodes ........... 4259
  Number of links ........... 4573
  Number of pollutants ...... 0
  Number of land uses ....... 1
  
  
  ***************
  Landuse Summary
  ***************
                         Sweeping   Maximum      Last
  Name                   Interval   Removal     Swept
  ---------------------------------------------------
  LANDUSE-1                  0.00      0.00      0.00
  
  
  ****************
  Raingage Summary
  ****************
                                                      Data       Recording
  Name                 Data Source                    Type       Interval 
  ------------------------------------------------------------------------
  23RD&RAY             C:\Users\KVANDYK\Documents\Spokane_Modeling\BReviewed\RainfallFiles\23RD&RAY.dat
  AIRWAY_HEIGHTS       C:\Users\KVANDYK\Documents\Spokane_Modeling\BReviewed\RainfallFiles\AIRWAYHEIGHTS.dat
  CITY_HALL            C:\Users\KVANDYK\Documents\Spokane_Modeling\BReviewed\RainfallFiles\CITYHALL.dat
  CSO10                CSO10_10YRCITY_BETA09          VOLUME      15 min.
  CSO12                CSO12_10YRCITY_BETA09          VOLUME      15 min.
  CSO14                CSO14_10YRCITY_BETA09          VOLUME      15 min.
  CSO15                CSO15_10YRCITY_BETA09          VOLUME      15 min.
  CSO16                CSO16_10YRCITY_BETA09          VOLUME      15 min.
  CSO19                CSO19_10YRCITY_BETA09          VOLUME      15 min.
  CSO2                 CSO2_10YRCITY_BETA09           VOLUME      15 min.
  CSO20                CSO20_10YRCITY_BETA09          VOLUME      15 min.
  CSO23                CSO23_10YRCITY_BETA09          VOLUME      15 min.
  CSO24                CSO24_10YRCITY_BETA09          VOLUME      15 min.
  CSO25                CSO25_10YRCITY_BETA09          VOLUME      15 min.
  CSO26                CSO26_10YRCITY_BETA09          VOLUME      15 min.
  CSO33                CSO33_10YRCITY_BETA09          VOLUME      15 min.
  CSO34                CSO34_10YRCITY_BETA09          VOLUME      15 min.
  CSO38                CSO38_10YRCITY_BETA09          VOLUME      15 min.
  CSO39                CSO39_10YRCITY_BETA09          VOLUME      15 min.
  CSO40                CSO40_10YRCITY_BETA09          VOLUME      15 min.
  CSO41                CSO41_10YRCITY_BETA09          VOLUME      15 min.
  CSO42                CSO42_10YRCITY_BETA09          VOLUME      15 min.
  CSO6                 CSO6_10YRCITY_BETA09           VOLUME      15 min.
  CSO7                 CSO7_10YRCITY_BETA09           VOLUME      15 min.
  DIVISION&MANITO      C:\Users\KVANDYK\Documents\Spokane_Modeling\BReviewed\RainfallFiles\DIVISION&MANITO.dat
  FIRE_STATION#8       C:\Users\KVANDYK\Documents\Spokane_Modeling\BReviewed\RainfallFiles\FIRE_STATION_8.dat
  IO3                  IO3_10YRCITY_BETA09            VOLUME      15 min.
  IO4                  IO4_10YRCITY_BETA09            VOLUME      15 min.
  JOE_ALBI_STADIUM     C:\Users\KVANDYK\Documents\Spokane_Modeling\BReviewed\RainfallFiles\JOE_ALBI_STADIUM.dat
  LINCOLN              C:\Users\KVANDYK\Documents\Spokane_Modeling\BReviewed\RainfallFiles\LINCOLN.dat
  NORTHEAST            NORTHEAST                      VOLUME       1 min.
  RAY&HARTSON          C:\Users\KVANDYK\Documents\Spokane_Modeling\BReviewed\RainfallFiles\RAY&HARTSON.dat
  ROCKWOOD_VISTA       C:\Users\KVANDYK\Documents\Spokane_Modeling\BReviewed\RainfallFiles\ROCKWOOD.dat
  SHADLE_PARK          C:\Users\KVANDYK\Documents\Spokane_Modeling\BReviewed\RainfallFiles\SHADLE.dat
  WEST_DRIVE_RES.      C:\Users\KVANDYK\Documents\Spokane_Modeling\BReviewed\RainfallFiles\WEST_DRIVE.dat
  
  
  ********************
  Subcatchment Summary
  ********************
  Name                       Area     Width   %Imperv    %Slope Rain Gage            Outlet              
  -----------------------------------------------------------------------------------------------------------
  0301036#1                 14.03    200.00      1.00    3.8000 SHADLE_PARK          301036              
  0301136#1                 18.59    200.00      2.00    1.8000 SHADLE_PARK          301136              
  0301236#1                 22.82    200.00      1.00    0.6000 SHADLE_PARK          301236              
  0301336#1                 10.93    200.00      0.60   21.0000 SHADLE_PARK          301336              
  0301936#1                 28.79    200.00      0.50    0.5000 SHADLE_PARK          301936              
  0302636#1                 69.00    250.00      2.00    2.0000 SHADLE_PARK          302636              
  0304130#1                 33.17    200.00      4.00    2.0000 SHADLE_PARK          304130              
  0304330#1                 32.75    200.00      0.50    0.3000 SHADLE_PARK          304330              
  0305330#1                 50.00    250.00      1.00    2.0000 SHADLE_PARK          305330              
  0305530#1                 15.00    250.00      1.00    2.0000 SHADLE_PARK          305530              
  0305730#1                 14.00    200.00      1.00    0.6000 SHADLE_PARK          305730              
  0306130#1                 41.00    250.00      1.00    2.0000 SHADLE_PARK          306130              
  0306330#1                 19.00    200.00      2.00    0.2000 SHADLE_PARK          306330              
  0306730#1                 18.00    200.00      0.10    2.3000 SHADLE_PARK          306730              
  0306930#1                 25.90    200.00      3.00    2.0000 SHADLE_PARK          306930              
  0307427#1                 50.26    200.00      1.00    2.0000 SHADLE_PARK          307427              
  0307827#1                 15.00    250.00      1.00    2.0000 SHADLE_PARK          307827              
  0308127#1                 19.00    200.00      1.00    2.0000 SHADLE_PARK          308127              
  0308727#1                103.00    200.00      1.00    0.4300 SHADLE_PARK          308727              
  0308824#1                 13.00    200.00      0.40    2.0000 SHADLE_PARK          308824              
  0309324#1                 10.00    250.00      0.10    2.0000 SHADLE_PARK          309324              
  0309424#1                 37.00    250.00      0.10    2.0000 SHADLE_PARK          309424              
  0309936CD#1               97.00    250.00      0.30    1.0000 SHADLE_PARK          0309936CD           
  0310530CD#1               33.00    150.00      1.00    1.0000 SHADLE_PARK          0310530CD           
  0310736CD#1                6.00    150.00      0.60    1.0000 SHADLE_PARK          0310736CD           
  0310836CD#1              126.00    150.00      0.60    1.0000 SHADLE_PARK          0310836CD           
  0401227#1                  7.89     58.00     20.90    0.0210 CITY_HALL            0401227             
  0402542#1                 23.39    292.00      7.00    0.0230 CITY_HALL            0402542             
  0600466_1                 15.96    620.00     34.20   33.4100 CITY_HALL            0600466             
  0601430_1                 12.05    240.00      3.46   31.3200 CITY_HALL            5502536             
  0700766#1                  9.69    280.00      2.81    6.5340 RAY&HARTSON          700766              
  0700866#1                  5.48    220.00      2.76    2.1780 RAY&HARTSON          700866              
  0701066#1                  8.74    280.00      2.93    1.4660 RAY&HARTSON          0701066             
  0701566#1                  1.55    120.00      3.61    3.3640 RAY&HARTSON          07177866CD          
  0701660ND#1                6.20    100.00      1.96    1.5370 RAY&HARTSON          0701660ND           
  0701666#1                  2.40    130.00      3.60    1.2100 RAY&HARTSON          0701566_1           
  0701966#1                  2.46    130.00      2.34    0.6530 RAY&HARTSON          701966              
  0702066#1                 22.39    280.00      5.94    1.3070 RAY&HARTSON          702066              
  0702166#1                 14.76    230.00      2.46    4.8400 RAY&HARTSON          702166              
  0702166ND#1                4.01    120.00      2.07    0.9680 RAY&HARTSON          0702166ND           
  0702266#1                  8.48     70.00      3.49    1.3960 RAY&HARTSON          702266              
  0702266_2#1               14.76    230.00      2.46    4.8400 RAY&HARTSON          0702166_2           
  0702466#1                  8.19    200.00      1.64    0.7260 RAY&HARTSON          702466              
  0702566#1                 12.12    230.00      2.08    0.4840 RAY&HARTSON          702566              
  0702766#1                  1.24    150.00      0.97    1.0530 RAY&HARTSON          702766              
  0702866#1                  4.97    230.00      1.81    1.0370 RAY&HARTSON          702866              
  0702966#1                  5.00    230.00      2.08    1.1500 RAY&HARTSON          702966              
  0703160#1                 12.04    200.00      1.22    1.5730 RAY&HARTSON          703160              
  0703260#1                  9.45    160.00      2.27    1.1860 RAY&HARTSON          703260              
  0703460#1                 22.95    260.00      1.39    1.2100 RAY&HARTSON          703360              
  0703754#1                 14.41    260.00      2.01    8.4700 RAY&HARTSON          703754              
  0703954#1                 19.11    640.00      1.19   20.5700 RAY&HARTSON          703954              
  1301336#1                  2.41    195.00     26.47    0.0220 ROCKWOOD_VISTA       1300436             
  1304036#1                  0.57    130.00     24.95    0.0220 ROCKWOOD_VISTA       6090212             
  13121512ST#1               2.64    260.00      2.92    1.0890 RAY&HARTSON          13121512ST          
  13121612ST#1               3.73    280.00      3.24    0.8710 RAY&HARTSON          13121612ST          
  13121712ST#1               2.87    240.00      2.81    0.8710 RAY&HARTSON          13121712ST          
  13121812ST#1               2.67    290.00      3.53    1.9120 RAY&HARTSON          13121812ST          
  13121908ST#1               2.78    280.00      2.31    0.9090 RAY&HARTSON          13121908ST          
  13135824ST#1               2.92    260.00      2.92    1.0890 RAY&HARTSON          13135824ST          
  13136324ST#1               3.46    240.00      3.50    1.5250 RAY&HARTSON          13136324ST          
  13136924ST#1               3.51    290.00      3.88    0.8540 RAY&HARTSON          13136924ST          
  13137418ST#1               3.34    290.00      3.53    1.9120 RAY&HARTSON          13137418ST          
  13137915ST#1               4.47    200.00      3.19    0.8540 RAY&HARTSON          13137915ST          
  13138412ST#1               3.07    240.00     15.18    0.9240 RAY&HARTSON          13138412ST          
  2000215#1                 11.21    350.00     44.40    0.0130 JOE_ALBI_STADIUM     2000215             
  2001515#1                 13.49    500.00     15.00    0.0090 JOE_ALBI_STADIUM     2001515             
  2002215#1                  8.37    350.00     13.00    0.0050 JOE_ALBI_STADIUM     2002215             
  2002615#1                 11.75    350.00     14.00    0.0030 JOE_ALBI_STADIUM     2002615             
  2002912#1                  3.32    350.00     20.00    0.0010 JOE_ALBI_STADIUM     2002912             
  2003812#1                  0.48     75.00      0.00    0.0010 JOE_ALBI_STADIUM     2003812             
  2020715#1                  8.49    350.00     15.00    0.0100 JOE_ALBI_STADIUM     2020715             
  2020815#1                 11.62    350.00     15.00    0.0070 JOE_ALBI_STADIUM     2020815             
  2021015#1                  5.66    350.00     17.00    0.0080 JOE_ALBI_STADIUM     2021015             
  2021115#1                  0.46     75.00     16.00    0.0020 JOE_ALBI_STADIUM     2021115             
  2400524#1                101.86    440.00     11.00    0.0300 SHADLE_PARK          2400524             
  2422608#1                  2.95    390.00     12.00    0.0900 SHADLE_PARK          2422608             
  26DETTANK1_1               1.47    700.00     90.00    1.0000 CITY_HALL            26DETTANK1          
  26DETTANK2_1               0.83    700.00     90.00    1.0000 CITY_HALL            26DETTANK2          
  26DETTANK3_1               0.20    700.00     90.00    1.0000 CITY_HALL            26DETTANK3          
  26DETTANK4_1               0.49    700.00     90.00    1.0000 CITY_HALL            26DETTANK4          
  26DETTANK5_1               0.54    700.00     90.00    1.0000 CITY_HALL            26DETTANK5          
  26DETTANK6_1               1.63    530.00     90.00    1.0000 ROCKWOOD_VISTA       26DETTANK6          
  26DETTANK8_1               4.66    700.00     90.00    1.0000 CITY_HALL            26DETTANK8          
  2901827#1                  5.08     50.00     21.00    0.0180 SHADLE_PARK          2901827             
  2902130#1                  5.23     60.00     23.40    0.0340 SHADLE_PARK          2902130             
  2902424#1                 12.52    110.00     23.50    0.0310 SHADLE_PARK          2902424             
  2902618#1                  4.02     70.00     25.70    0.0310 SHADLE_PARK          2902618             
  2902718#1                  9.58    110.00     22.90    0.0350 SHADLE_PARK          2902718             
  2903015#1                  7.12    150.00     20.10    0.0170 SHADLE_PARK          2903015             
  2903212C#1                 8.32     50.00     19.30    0.0140 SHADLE_PARK          2903212C            
  2903412C#1                10.62     80.00     20.50    0.0170 SHADLE_PARK          2903412C            
  2903936#1                 40.20    160.00     17.90    0.0260 SHADLE_PARK          2903936             
  2904624#1                  7.58     80.00     20.40    0.0220 SHADLE_PARK          2904624             
  2905327#1                 12.82    160.00     12.80    0.0160 SHADLE_PARK          2905327             
  2905627#1                  5.52     90.00     12.40    0.0080 SHADLE_PARK          2905627             
  2905827#1                  4.77    220.00     12.40    0.0100 SHADLE_PARK          2905827             
  2905927#1                  3.88     70.00      7.40    0.0170 SHADLE_PARK          2905927             
  2906027#1                 12.96    170.00     17.10    0.0120 SHADLE_PARK          2906027             
  2906227#1                  2.18     40.00     18.70    0.0130 SHADLE_PARK          2906227             
  2906327#1                  9.77    140.00     24.50    0.0080 SHADLE_PARK          2906327             
  2906618#1                 10.21    140.00     16.40    0.0050 SHADLE_PARK          2906618             
  2906812C#1                 2.87     70.00     15.40    0.0030 SHADLE_PARK          2906812C            
  2907015C#1                10.01    140.00     15.80    0.0050 SHADLE_PARK          2907015C            
  2921410#1                  6.77     50.00     23.00    0.0410 SHADLE_PARK          2921410             
  2921610#1                  5.00     60.00     20.90    0.0300 SHADLE_PARK          2921610             
  2921910#1                  2.45     50.00     23.60    0.0250 SHADLE_PARK          2921910             
  2922010#1                 19.06     70.00     11.30    0.0090 SHADLE_PARK          2922010             
  2922512C#1                 4.60     50.00     20.20    0.0310 SHADLE_PARK          2922512C            
  2923310#1                 17.89     80.00     11.60    0.0200 SHADLE_PARK          2923310             
  2923612C#1                 2.55     60.00     20.80    0.0370 SHADLE_PARK          2923612C            
  2923712C#1                 1.18     10.00     21.50    0.0230 SHADLE_PARK          2923712C            
  2923912C#1                 8.43     60.00     29.90    0.0150 SHADLE_PARK          2923912C            
  2924710C#1                 1.66     40.00     22.60    0.0080 SHADLE_PARK          2924710C            
  2924812C#1                 5.00    110.00     21.30    0.0120 SHADLE_PARK          2924812C            
  2925010C#1                10.92     70.00     22.30    0.0160 SHADLE_PARK          2925010C            
  2928915C#1                 4.38     50.00     15.60    0.0290 SHADLE_PARK          2928915C            
  2929115C#1                16.82    130.00     13.10    0.0250 SHADLE_PARK          2929115C            
  2929810#1                  9.41    100.00     11.10    0.0290 SHADLE_PARK          2929810             
  2931518C#1                 7.25     90.00     13.60    0.0040 SHADLE_PARK          2931518C            
  2931618C#1                 7.58     80.00     12.70    0.0110 SHADLE_PARK          2931618C            
  2931718C#1                 6.29     90.00     13.40    0.0130 SHADLE_PARK          2931718C            
  2931818C#1                 9.24    120.00     13.00    0.0140 SHADLE_PARK          2931818C            
  2932118C#1                 8.56    140.00     11.30    0.0080 SHADLE_PARK          2932118C            
  2932218C#1                11.96    250.00     11.60    0.0100 SHADLE_PARK          2932218C            
  2932318C#1                 6.83    110.00     11.50    0.0070 SHADLE_PARK          2932318C            
  2932418C#1                 7.53     90.00     12.60    0.0090 SHADLE_PARK          2932418C            
  2932518C#1                 3.35    110.00     12.40    0.0240 SHADLE_PARK          2932518C            
  2932618C#1                10.70    390.00     11.90    0.0070 SHADLE_PARK          2932618C            
  2932715C#1                10.53    310.00     11.50    0.0040 SHADLE_PARK          2932715C            
  2932812C#1                 2.44     90.00     13.00    0.0050 SHADLE_PARK          2932812C            
  2933010C#1                 3.39     80.00     13.20    0.0100 SHADLE_PARK          2933010C            
  2933812C#1                 3.31     60.00     11.70    0.0050 SHADLE_PARK          2933812C            
  2934015C#1                11.62    100.00     11.20    0.0070 SHADLE_PARK          2934015C            
  2934612C#1                 7.35    130.00     14.70    0.0030 SHADLE_PARK          2934612C            
  2934815C#1                10.30     90.00     15.00    0.0050 SHADLE_PARK          2934815C            
  2935615C#1                 7.35     70.00     14.50    0.0040 SHADLE_PARK          2935615C            
  2936212C#1                18.40    100.00     15.50    0.0050 SHADLE_PARK          2936212C            
  2937512C#1                 8.42     70.00     14.60    0.0040 SHADLE_PARK          2937512C            
  2938112C#1                10.53    200.00     15.00    0.0060 SHADLE_PARK          2938112C            
  2938312C#1                 7.26    130.00     14.90    0.0040 SHADLE_PARK          2938312C            
  3000218#1                 18.27    250.00     11.00    0.0460 SHADLE_PARK          3000218             
  3000618#1                 18.26    250.00     11.00    0.0060 SHADLE_PARK          3000618             
  3000715#1                 18.78    250.00     12.00    0.0200 SHADLE_PARK          3000715             
  30022#1                  143.44    500.00      0.50    2.1000 SHADLE_PARK          30022               
  30050#1                   74.78    250.00      1.30    0.8000 SHADLE_PARK          30050               
  3007627CD#1              173.45    450.00      4.00    2.0000 SHADLE_PARK          3007627CD           
  3011442CD#1               40.00    250.00      0.10    2.0000 SHADLE_PARK          3011442CD           
  3011836CD#1               59.00    250.00      0.20    2.0000 SHADLE_PARK          3011836CD           
  3011924CD#1               17.00    250.00      0.10    2.0000 SHADLE_PARK          3011924CD           
  3012121CD#1               22.00    250.00      0.10    2.0000 SHADLE_PARK          3012121CD           
  3012830CD#1               21.00    250.00      3.00    2.0000 SHADLE_PARK          3012830CD           
  34017#1                  154.98    100.00      2.00    9.0000 SHADLE_PARK          34017               
  34045#1                   55.76    250.00      1.50    0.2000 SHADLE_PARK          34045               
  3501830#1                 31.30    550.00     15.80    0.0310 CITY_HALL            3501830             
  3502130#1                 20.89    550.00     14.80    0.0080 CITY_HALL            3502130             
  3502630#1                 25.07    550.00     19.70    0.0170 CITY_HALL            3502630             
  3502930#1                 65.26    550.00     22.60    0.0480 CITY_HALL            3502930             
  3504422#1                 32.05    550.00     18.60    0.0360 CITY_HALL            3504422             
  3505024#1                 52.37    550.00     16.10    0.0240 CITY_HALL            3505024             
  3522812#1                 12.21    550.00     15.80    0.0170 CITY_HALL            3522812             
  3523515#1                 12.85    550.00     13.30    0.0300 CITY_HALL            3523515             
  3523615#1                 46.57    550.00     17.60    0.0270 CITY_HALL            3523615             
  3524110#1                 17.47    550.00     16.60    0.0080 CITY_HALL            3524110             
  3524212#1                 14.98    550.00     16.40    0.0100 CITY_HALL            3524212             
  3527018#1                 26.54    550.00     14.40    0.0090 CITY_HALL            3527018             
  3600120#1                 38.41   1200.00      9.43    1.3000 CITY_HALL            3600120             
  3600318#1                  7.94    400.00     15.89    1.1000 CITY_HALL            3600318             
  3600518#1                  5.36    400.00     10.57    1.0000 CITY_HALL            3621210CD           
  3600618#1                  8.53    500.00     12.16    0.4000 CITY_HALL            3600718             
  3600918#1                  2.45    600.00     14.30    0.5000 CITY_HALL            3600918             
  3601118#1                 19.45    800.00     11.62    2.7000 CITY_HALL            3601118             
  3601715CD#1               11.14    750.00     11.62    1.0000 CITY_HALL            3601715CD           
  3601812CD#1               31.05   1500.00     10.71    0.6000 CITY_HALL            3601812CD           
  3601912CD#1                4.34    800.00     12.14    2.0000 CITY_HALL            3601912CD           
  3602010CD#1               14.57   1200.00     13.15    1.5000 CITY_HALL            3602010CD           
  36030#1                   10.45    208.00     17.40    0.0220 CITY_HALL            3603021CD           
  36031#1                    9.25    144.00     21.40    0.0180 CITY_HALL            36031               
  36033#1                    4.77    140.00     21.70    0.0170 CITY_HALL            36033               
  36034#1                    8.71     87.00     23.70    0.0180 CITY_HALL            36034               
  36036#1                    7.56     60.00     20.70    0.0180 CITY_HALL            36036               
  3622408CD#1               15.86   1000.00      9.94    2.4000 CITY_HALL            3622408CD           
  3624208CD#1                4.81    600.00     12.88    3.6000 CITY_HALL            3624208CD           
  3625208CD#1                1.54    200.00     14.60    2.0000 CITY_HALL            3625208CD           
  36260#1                    3.93     56.00     77.00    0.0190 CITY_HALL            36260               
  36262#1                    4.93     50.00     35.00    0.0240 CITY_HALL            36262               
  3701521#1                 35.95    200.00      4.20    2.0000 CITY_HALL            3701521             
  3701716#1                 16.49    200.00      5.80    0.5000 CITY_HALL            3701716             
  3702016#1                 62.00    200.00      1.10    0.4000 CITY_HALL            3702016             
  3720712#1                  9.09    200.00     10.80    0.5000 CITY_HALL            3720712             
  37215#1                    9.68    350.00     12.00    0.4000 CITY_HALL            37215               
  37218#1                   38.18    350.00      7.20    0.5000 CITY_HALL            37218               
  37226#1                    8.65    350.00      3.60    0.5000 CITY_HALL            37226               
  37228#1                   14.54    350.00     14.00    0.4000 CITY_HALL            37228               
  3900118CD#1                4.39    550.00      1.50    4.2000 SHADLE_PARK          3900118CD           
  3900527CD#1               24.00    250.00      1.50    2.5000 SHADLE_PARK          3900527CD           
  3900824CD#1               61.00    250.00      1.50    2.0000 SHADLE_PARK          3900824CD           
  3901327CD#1               28.00    250.00      0.80    2.0000 SHADLE_PARK          3901327CD           
  3901627CD#1               34.00    250.00      0.50    2.0000 SHADLE_PARK          3901627CD           
  3901927CD#1               28.00    250.00      0.50    2.0000 SHADLE_PARK          3901927CD           
  3902327CD#1               20.00    250.00      0.50    2.0000 SHADLE_PARK          3902327CD           
  3902427CD#1               34.00    250.00      0.50    2.0000 SHADLE_PARK          3902427CD           
  3902727CD#1               14.00    250.00      0.50    2.0000 SHADLE_PARK          3902727CD           
  3902927CD#1               87.00    500.00      0.50    0.1700 SHADLE_PARK          3902927CD           
  3903527CD#1               65.00    250.00      0.50    2.0000 SHADLE_PARK          3903527CD           
  3904327CD#1              220.33    500.00      1.20    2.1000 SHADLE_PARK          3904327CD           
  3906427CD#1               21.00    250.00      0.80    2.0000 SHADLE_PARK          3906427CD           
  40011#1                   25.00    500.00      1.00    1.0000 SHADLE_PARK          40011               
  4001527CD#1               43.00    200.00      0.50    1.0000 SHADLE_PARK          4001527CD           
  4001827CD#1                9.00    250.00      0.40    2.0000 SHADLE_PARK          4001827CD           
  4001930CD#1               32.00    250.00      0.20    2.0000 SHADLE_PARK          4001930CD           
  4002024CD#1               31.00    250.00      0.20    2.0000 SHADLE_PARK          4002024CD           
  4002427CD#1               32.00    250.00      0.40    2.0000 SHADLE_PARK          4002427CD           
  4002624CD#1               43.00    250.00      0.30    2.0000 SHADLE_PARK          4002624CD           
  4002924CD#1               24.00    250.00      0.40    2.0000 SHADLE_PARK          4002924CD           
  4003427CD#1              103.00    250.00      3.00    2.0000 SHADLE_PARK          4003427CD           
  4102112CD#1               21.00    250.00      0.10    2.0000 SHADLE_PARK          4102112CD           
  4102408CD#1               20.00    250.00      0.10    2.0000 SHADLE_PARK          4102408CD           
  41048#1                   30.00    250.00      0.20    2.0000 SHADLE_PARK          41048               
  4105524CD#1               27.00    250.00      0.20    2.0000 SHADLE_PARK          4105524CD           
  4106130CD#1               59.00    250.00      0.50    2.0000 SHADLE_PARK          4106130CD           
  4107227CD#1               27.00    250.00      0.20    2.0000 SHADLE_PARK          4107227CD           
  4108630CD#1               67.00    250.00      0.50    2.0000 SHADLE_PARK          4108630CD           
  4109424CD#1               45.00    250.00      0.30    2.0000 SHADLE_PARK          4109424CD           
  4109818CD#1               40.00    250.00      0.30    2.0000 SHADLE_PARK          4109818CD           
  4110215CD#1               48.00    250.00      7.00    2.0000 SHADLE_PARK          4110215CD           
  42006#1                   40.52    150.00      4.60    0.0220 CITY_HALL            42006               
  42008#1                   18.00     79.00      4.80    0.0190 CITY_HALL            42008               
  42011#1                    8.50     80.00      4.90    0.0190 CITY_HALL            42011               
  42013#1                    9.75     91.00      3.50    0.0200 CITY_HALL            42013               
  42017#1                   13.07     48.00     11.20    0.0210 CITY_HALL            42017               
  42018#1                   11.23     55.00     13.60    0.0210 CITY_HALL            42018               
  42019#1                    8.71     47.00     12.20    0.0210 CITY_HALL            42019               
  4202630#1                 32.07    131.00     13.70    0.0200 CITY_HALL            4202630             
  4203030#1                 49.25    266.00      9.10    0.0220 CITY_HALL            4203030             
  4203824#1                 44.52    197.00      2.10    0.0210 CITY_HALL            4203824             
  4204224#1                 36.97     95.00     18.50    0.0180 CITY_HALL            4204224             
  4204320#1                 16.05    116.00      0.90    0.0180 CITY_HALL            4204320             
  4204520#1                 14.18     73.00      0.80    0.0180 CITY_HALL            4204520             
  4204718#1                 28.25     74.00     13.90    0.0180 CITY_HALL            4204718             
  4204818#1                 19.58     91.00      0.80    0.0180 CITY_HALL            4204818             
  4204918#1                 40.19    115.00      2.60    0.0170 CITY_HALL            4204918             
  4221810#1                 15.62    138.00     11.00    0.0230 CITY_HALL            4221810             
  4222408#1                 22.27    233.00     14.90    0.0190 CITY_HALL            4222408             
  4222715#1                 15.59    190.00      1.10    0.0180 CITY_HALL            4222715             
  4222812#1                 16.53    161.00      0.90    0.0170 CITY_HALL            4222812             
  4223210#1                 19.46    189.00      1.20    0.0180 CITY_HALL            4223210             
  4223508#1                 12.99     90.00      1.10    0.0180 CITY_HALL            4223508             
  4224010#1                 22.96     86.00      2.40    0.0170 CITY_HALL            4224010             
  4225412#1                 19.31    280.00      1.10    0.0180 CITY_HALL            4225412             
  4225512#1                 19.38    281.00      4.40    0.0180 CITY_HALL            4225512             
  4226208#1                 14.69    357.00      0.80    0.0170 CITY_HALL            4226208             
  4227310#1                 14.74    102.00      1.10    0.0200 CITY_HALL            4227310             
  4227612#1                 25.18    118.00      1.10    0.0180 CITY_HALL            4227612             
  4231018#1                 10.94     71.00      1.10    0.0170 CITY_HALL            4231018             
  4231118#1                 31.72     48.00      1.20    0.0170 CITY_HALL            4231118             
  4231315#1                 29.46     86.00      1.00    0.0180 CITY_HALL            4231315             
  4231415#1                 37.69    102.00     15.70    0.0180 CITY_HALL            4231415             
  4232212#1                 28.61     93.00     12.20    0.0180 CITY_HALL            4232212             
  4236612#1                 29.33    190.00      0.80    0.0180 CITY_HALL            4236612             
  4253108#1                 14.72     89.00      1.00    0.0170 CITY_HALL            4253108             
  4302321_1                 10.14    500.00     38.61   50.0000 CITY_HALL            25_J1               
  4303512_1                 11.06    600.00     42.38   14.3000 CITY_HALL            4303512             
  43039#1                   10.14    550.00     15.00    0.0900 WEST_DRIVE_RES.      43039               
  43060#1                    5.95    275.00     13.00    0.0320 WEST_DRIVE_RES.      43060               
  43063#1                   28.10    275.00     15.00    0.0320 WEST_DRIVE_RES.      43063               
  4330212_1                 14.58    360.00      4.37   16.9200 CITY_HALL            4330212             
  44010#1                   21.95    400.00      9.50    0.1710 WEST_DRIVE_RES.      44010               
  44018#1                    7.72    400.00      9.00    0.0640 WEST_DRIVE_RES.      44018               
  44058#1                   19.99    400.00      9.00    0.2870 WEST_DRIVE_RES.      44058               
  44059#1                    2.83    400.00     10.00    0.1670 WEST_DRIVE_RES.      44059               
  44278#1                   66.86    400.00      9.00    0.2870 WEST_DRIVE_RES.      44278               
  45025#1                    7.76    400.00     10.00    0.0850 WEST_DRIVE_RES.      45025               
  45029#1                    7.36    400.00      9.50    0.0930 WEST_DRIVE_RES.      45029               
  45030#1                    0.49     60.00      9.00    0.1100 WEST_DRIVE_RES.      45030               
  46017#1                   12.99    400.00      7.50    0.0700 WEST_DRIVE_RES.      46017               
  4810215CD#1               23.00    250.00      0.60    2.0000 SHADLE_PARK          4810215CD           
  4902336CD#1               49.00    250.00      0.60    1.0000 SHADLE_PARK          4902336CD           
  4902536CD#1               20.00    250.00      0.30    1.0000 SHADLE_PARK          4902536CD           
  4902836CD#1              121.00    150.00      0.60    1.0000 SHADLE_PARK          4902836CD           
  4903236CD#1               59.00    450.00      0.60    1.0000 SHADLE_PARK          4903236CD           
  4903630CD#1               20.00    250.00      1.30    1.0000 SHADLE_PARK          4903630CD           
  4903924CD#1               82.00    150.00      3.00    1.0000 SHADLE_PARK          4903924CD           
  4925321CD#1              685.00    350.00      0.40    1.0000 SHADLE_PARK          4925321CD           
  4931424CD#1                7.00    250.00      0.30    1.0000 SHADLE_PARK          4931424CD           
  4931724CD#1               21.00    150.00      0.60    1.0000 SHADLE_PARK          4931724CD           
  4932124CD#1               15.00    300.00      0.60    1.0000 SHADLE_PARK          4932124CD           
  4932421CD#1                6.00    250.00      0.20    1.0000 SHADLE_PARK          4932421CD           
  4932521CD#1               93.00    150.00      0.30    1.0000 SHADLE_PARK          4932521CD           
  5000527CD#1               11.00    250.00      0.30    1.0000 SHADLE_PARK          5000527CD           
  5002018CD#1               35.00    250.00      0.10    1.0000 SHADLE_PARK          5002018CD           
  5002118CD#1                5.00    250.00      0.30    2.0000 SHADLE_PARK          5002118CD           
  5002424CD#1                3.00    250.00      1.00    2.0000 SHADLE_PARK          5002424CD           
  5002624CD#1               11.00    250.00      2.00    2.0000 SHADLE_PARK          5002624CD           
  5002824CD#1               43.00    250.00      0.50    2.0000 SHADLE_PARK          5002824CD           
  5003124CD#1               57.00    250.00      2.30    2.0000 SHADLE_PARK          5003124CD           
  5025112CD#1                5.00    250.00      0.50    2.0000 SHADLE_PARK          5025112CD           
  5401863_1                 31.44    700.00     56.76   15.0000 CITY_HALL            5401863             
  5401954_1                 11.90    440.00     50.64    7.5000 CITY_HALL            5401954             
  5403915_1                 13.83    790.00     37.25   40.4900 ROCKWOOD_VISTA       5403915             
  5404715_1                  5.20    700.00     19.83   36.0000 ROCKWOOD_VISTA       5404715             
  5407024_1                 37.70    700.00     35.15   33.7500 CITY_HALL            5407024             
  5420718_1                  4.47    620.00     40.24    9.0000 CITY_HALL            5420718             
  5420821_1                 22.10    490.00     43.59   33.7500 CITY_HALL            5420821             
  5420921_1                 18.72    620.00     43.06   37.6200 CITY_HALL            5420921             
  5421518_1                  6.00    440.00     59.53   37.5000 CITY_HALL            5421518             
  5421615_1                  2.05    620.00     70.70   45.0000 CITY_HALL            5421615             
  5421715_1                  7.73    620.00     25.92   33.7500 CITY_HALL            5421715             
  5421815_1                  9.36    700.00     37.74   36.0000 CITY_HALL            5421815             
  5422015_1                 20.34    700.00     25.89   39.0000 CITY_HALL            5422015             
  5422115_1                  3.73    620.00     62.20   31.5000 CITY_HALL            5422115             
  5422215_1                  4.91    700.00     43.68   34.5000 CITY_HALL            5422215             
  5422615_1                  5.76    530.00     16.25    9.0000 CITY_HALL            5422615             
  5422712_1                  8.81    620.00     47.23    6.0000 CITY_HALL            5422712             
  5423112_1                 14.51    700.00     55.95    9.0000 CITY_HALL            5423112             
  5424010_1                  7.70    700.00     41.53    7.5000 CITY_HALL            5424010             
  5425118_1                 30.35    700.00     44.57   12.0000 CITY_HALL            5425118             
  5425324_1                 10.42    700.00     34.37   13.5000 CITY_HALL            5425324             
  5425736_1                 16.56    700.00     52.37   34.5000 CITY_HALL            5425736             
  5426115_1                 28.81    700.00     44.65   19.5000 ROCKWOOD_VISTA       5426115             
  5426932_1                 10.79    790.00     62.02   32.8500 CITY_HALL            5426932             
  5427536_1                 21.64    620.00     58.35   33.7500 CITY_HALL            5427536             
  5428215_1                 21.35    620.00     41.40   38.8200 CITY_HALL            5428215             
  5428512_1                  2.93    740.00     58.98   34.5600 ROCKWOOD_VISTA       5428512             
  5428712_1                 26.59    740.00     39.35   51.2100 ROCKWOOD_VISTA       5428712             
  5429608_1                  3.19    530.00     29.05   37.5000 ROCKWOOD_VISTA       5429608             
  5429708_1                  7.87    880.00     23.43   56.2500 ROCKWOOD_VISTA       5429708             
  5429808_1                  9.90    790.00     18.34   76.4100 ROCKWOOD_VISTA       5429808             
  5429908_1                 10.13    880.00     25.34   67.5000 ROCKWOOD_VISTA       5429908             
  5430208_1                  9.17    700.00     18.87   67.5000 CITY_HALL            5430208             
  5432208_1                  3.33    700.00     35.04   94.5000 ROCKWOOD_VISTA       5432208             
  5432510_1                 15.98    790.00     36.65   49.5000 ROCKWOOD_VISTA       5432510             
  5451015_1                  8.60    620.00     41.70    9.0000 CITY_HALL            5451015             
  5453010_1                  1.57    700.00     40.04   33.7500 CITY_HALL            5453010             
  5453108_1                  3.74    620.00     36.75   33.7500 CITY_HALL            5453108             
  5453308_1                  1.80    480.00     35.11   30.0000 CITY_HALL            5453308             
  5457710_1                  9.58    700.00     56.60   33.7500 CITY_HALL            5457710             
  5458310_1                  6.65    700.00     47.23   27.0000 ROCKWOOD_VISTA       5458310             
  5459408_1                  9.23    670.00     52.20   25.5000 CITY_HALL            5459408             
  5459810_1                  8.12    530.00     49.00   47.0300 CITY_HALL            5459810             
  5460310_1                 18.11    620.00     45.32   12.0000 CITY_HALL            5460310             
  5461208_1                  6.21    530.00     55.80   36.6800 ROCKWOOD_VISTA       5461208             
  5461510_1                 28.55    530.00     30.60   37.6200 ROCKWOOD_VISTA       5461510             
  5462312_1                  6.78    620.00     39.06   67.6400 ROCKWOOD_VISTA       5462312             
  5462708_1                 18.57    700.00     28.24   45.0000 ROCKWOOD_VISTA       5462708             
  5463608_1                  8.97    620.00     30.29   52.5000 ROCKWOOD_VISTA       5463608             
  5464308_1                  3.87    620.00     36.42   32.9700 ROCKWOOD_VISTA       5464308             
  5474108_1                 10.39    700.00     31.68   63.0000 ROCKWOOD_VISTA       5474108             
  5500221_1                  6.13    300.00      6.00    4.4400 CITY_HALL            5500321             
  5500818_1                 24.28    300.00      5.60    1.0800 CITY_HALL            5500818             
  5502760_1                 11.57    240.00      5.42    1.4000 CITY_HALL            5502760             
  5502860_1                 31.56    300.00      4.31    1.5000 CITY_HALL            5502860             
  5503060_1                 11.53    300.00      4.97    1.5000 CITY_HALL            5503060             
  5504336_1                 13.41    300.00      5.01    1.0000 CITY_HALL            5504336             
  5504830_1                 11.06    240.00      4.44    3.8000 DIVISION&MANITO      5504830             
  5520310_1                  4.93    300.00      5.85    6.2000 CITY_HALL            5520310             
  5520508_1                  8.18    300.00      3.73    6.9600 CITY_HALL            5520508             
  5520808_1                  6.63    144.00      5.55    1.2000 CITY_HALL            5520808             
  5522310_1                 10.39    300.00      4.49    1.5600 CITY_HALL            5522310             
  5522912_1                  7.23    480.00      1.90    3.8400 CITY_HALL            5522912             
  5523110_1                 20.91    420.00      3.41   10.0800 CITY_HALL            5523110             
  5525212_1                  5.93    420.00      3.59   14.8800 CITY_HALL            5525212             
  5527210_1                  5.67    120.00      4.68   10.2000 CITY_HALL            5527210             
  5533908_1                  3.15    156.00      5.19    2.5000 CITY_HALL            5533908             
  5534724_1                  2.77    120.00      5.35    4.2000 CITY_HALL            5534724             
  5535620_1                 17.68    240.00      4.38    2.3000 DIVISION&MANITO      5535620             
  5535820_1                  9.51    240.00      4.97    7.6000 DIVISION&MANITO      5535820             
  5535918_1                 25.49    240.00      4.94    7.3000 DIVISION&MANITO      5535918             
  5536424_1                 40.21    240.00      2.80    4.5000 DIVISION&MANITO      5536424             
  5536624_1                 14.12    240.00      4.09    3.6000 DIVISION&MANITO      5536624             
  5536820_1                 14.02    288.00      3.95    1.6000 DIVISION&MANITO      5536820             
  5536920_1                 10.07    240.00      4.42    2.7000 DIVISION&MANITO      5536920             
  5538724_1                  6.22    300.00      5.04    6.7000 CITY_HALL            5538724             
  5538824_1                 11.15    360.00      3.77    4.9000 CITY_HALL            5538824             
  5538927_1                  9.90    240.00      4.01    3.7000 CITY_HALL            5538927             
  5539036_1                  7.27    240.00      4.47    3.6000 DIVISION&MANITO      5539036             
  5539224_1                  4.95    264.00      3.30    4.9000 DIVISION&MANITO      5539224             
  5539524_1                  3.26    180.00      2.89    8.4000 CITY_HALL            5539524             
  5539824_1                 20.12    420.00      3.30    7.3000 CITY_HALL            5539824             
  5540236_1                 29.27    480.00      3.49    4.6000 CITY_HALL            5540236             
  5555418_1                  9.41    300.00      4.67    0.8000 CITY_HALL            5555418             
  5555608_1                 19.55    300.00      4.45    4.2000 CITY_HALL            5555608             
  5557512_1                 21.04    300.00      3.83    3.2000 DIVISION&MANITO      5557512             
  5559215_1                  7.71    240.00      4.87    2.2000 DIVISION&MANITO      5559215             
  5562010_1                 23.53    300.00      4.27    2.4000 DIVISION&MANITO      5562010             
  5564108_1                  2.77    150.00      7.20    7.6000 CITY_HALL            5564108             
  5564208_1                  6.47    300.00      3.46    7.2000 CITY_HALL            5564208             
  5564608CD_1               21.88    300.00      3.29   12.4000 CITY_HALL            5564608             
  5565508_1                  5.74    300.00      3.51    5.6000 CITY_HALL            5565508CD           
  5566308CD_1               15.08    300.00      4.78    9.4000 CITY_HALL            5566308CD           
  5568308ND_1               11.15    300.00      3.79    5.6000 CITY_HALL            5568308             
  5601718#1                 88.55    625.00     17.00    0.0060 RAY&HARTSON          5601724CD           
  5700218#1                 71.41    300.00     13.00    0.0200 RAY&HARTSON          5700218             
  5701818#1                 61.00    250.00      8.00    0.0100 RAY&HARTSON          5701818             
  5703115#1                 56.50    350.00      8.00    0.0060 RAY&HARTSON          5703115             
  5901036#1                 12.64    240.00      2.41    2.9040 RAY&HARTSON          5901036             
  5901636#1                  3.47    290.00      2.59    3.6300 RAY&HARTSON          5905612CD           
  5901736#1                  6.85    360.00      2.36    2.1780 RAY&HARTSON          341INT_MH17         
  5902624#1                  2.28    240.00      3.34    2.1780 RAY&HARTSON          5902624             
  5903422#1                  2.41    160.00      2.97    1.0020 RAY&HARTSON          5903422             
  5903720#1                  2.50    220.00      3.10    0.1450 RAY&HARTSON          5903720             
  5903920#1                  7.07    240.00      2.59    2.1780 RAY&HARTSON          5903920             
  5904020#1                  4.94    220.00      1.89    1.0160 RAY&HARTSON          5904020             
  5904118#1                  2.79    220.00      3.68    2.9040 RAY&HARTSON          5904118             
  5904218#1                  4.36    200.00      2.42    0.1450 RAY&HARTSON          5904218             
  5904318#1                  3.50    220.00      2.33    4.3560 RAY&HARTSON          5904318             
  5904518#1                  4.34     80.00      3.22    1.4520 RAY&HARTSON          5904518             
  5904912#1                  2.67    290.00      4.18    1.8880 RAY&HARTSON          5904912             
  5905012#1                  1.25    140.00      2.96    2.6140 RAY&HARTSON          5905012             
  5905112#1                  2.97    200.00      3.16    7.0530 RAY&HARTSON          5905112             
  5905210#1                  3.49    200.00      2.83    0.9720 RAY&HARTSON          5905210             
  5905512#1                  4.06    280.00      3.17    3.7750 RAY&HARTSON          341INT_MH55         
  5905612#1                 10.04    260.00      2.51    4.5860 RAY&HARTSON          5905612CD           
  5907110#1                  4.97    230.00      2.78    5.0820 RAY&HARTSON          5907110             
  5907310#1                  3.16    230.00      2.63    2.0740 RAY&HARTSON          5907310             
  5907410#1                  5.94    130.00      2.03    0.8350 RAY&HARTSON          5907410             
  5907510#1                  4.92    160.00      2.25    0.3870 RAY&HARTSON          5907510             
  5907610#1                  4.60    200.00      1.94    1.0530 RAY&HARTSON          5907610             
  5907710#1                  3.66    130.00      2.14    0.6050 RAY&HARTSON          5907710             
  5907912#1                  6.13    240.00      2.23    1.9360 RAY&HARTSON          5907912             
  5908010#1                  1.93    120.00      2.31    3.8240 RAY&HARTSON          5908010             
  5908312#1                  2.76    120.00      2.19    1.1500 RAY&HARTSON          5908312             
  5908412#1                  3.55    120.00      2.81    0.1820 RAY&HARTSON          5908412             
  5908510#1                  3.69    130.00      3.04    0.4840 RAY&HARTSON          5908510             
  5909210#1                  5.91    130.00      2.18    2.1340 RAY&HARTSON          5924410             
  5909636#1                  1.98    200.00      2.73    2.2950 RAY&HARTSON          5909636             
  5909636L#1                 2.95    120.00      3.20    0.8270 RAY&HARTSON          5909636L            
  5909730#1                  9.57    280.00      3.43    2.1780 RAY&HARTSON          5909730             
  5910115#1                  9.96    320.00      2.77    9.5830 RAY&HARTSON          5910115             
  5910215#1                 16.47    470.00      0.93    2.9040 RAY&HARTSON          5910215             
  5910715#1                 13.53    320.00      1.83    4.3560 RAY&HARTSON          5910715             
  5911115#1                 25.69    700.00      0.88   13.2510 23RD&RAY             5911115             
  5911215#1                 12.71    360.00      2.35    4.5990 RAY&HARTSON          5911412             
  5911612#1                 11.44    360.00      2.07    7.7400 23RD&RAY             5911612             
  5912010#1                 13.17    510.00      1.97   10.1640 23RD&RAY             5912010             
  5912208#1                  5.68    470.00      1.97    7.1610 23RD&RAY             5912208             
  5912910#1                  3.17    210.00      2.40    2.4200 RAY&HARTSON          5912810             
  5913010#1                  2.65    100.00      2.46    1.2100 RAY&HARTSON          5913010             
  5913110#1                  1.30    150.00      1.52    0.9680 RAY&HARTSON          5913110             
  5913208#1                  3.06    200.00      0.61    0.9680 RAY&HARTSON          5913208             
  5913510#1                  4.44    180.00      2.65    2.4200 RAY&HARTSON          5913510             
  5913912#1                  4.77    210.00      2.46    1.8390 RAY&HARTSON          5913912             
  5914412#1                  2.60    210.00      1.93    1.3790 RAY&HARTSON          5914412             
  5915312#1                  2.11    210.00      1.74    0.6900 RAY&HARTSON          5915312             
  5915412#1                  2.94    210.00      2.30    0.3630 RAY&HARTSON          5915412             
  5916008#1                  7.03    230.00      0.67   14.3000 RAY&HARTSON          5916008             
  5916442#1                  1.75    180.00      2.59    0.6900 RAY&HARTSON          5916442             
  5916642#1                  4.87    180.00      2.76    0.3630 RAY&HARTSON          5916642             
  5916830#1                 18.79     70.00      6.93    0.8880 RAY&HARTSON          5916830             
  5917412#1                 14.07    240.00      1.92    1.2100 RAY&HARTSON          5917318             
  5918208#1                  6.78    160.00      2.57    1.3790 RAY&HARTSON          5918208             
  5918812#1                 10.02    230.00      2.09    0.6410 RAY&HARTSON          5918812             
  5920810#1                  2.93    240.00     15.18    0.9240 RAY&HARTSON          5920810             
  5920910#1                  2.48    160.00      3.64    0.8710 RAY&HARTSON          5920910             
  5921712#1                  3.89    240.00      2.81    0.8710 RAY&HARTSON          5921712             
  5921810#1                  1.91    240.00      2.62    1.8150 RAY&HARTSON          5921810             
  5921910#1                  3.32    220.00      3.44    1.0890 RAY&HARTSON          5921910             
  5922510#1                  3.07    220.00      3.49    8.1690 RAY&HARTSON          5922610             
  5922910#1                  2.85    320.00      0.92    0.7260 RAY&HARTSON          5922910             
  5923212#1                  2.38    160.00      3.43    2.3230 RAY&HARTSON          5923212             
  5923312#1                  3.94    240.00      3.23    1.6560 RAY&HARTSON          5923312             
  5923410#1                  5.19    240.00      3.86    1.7280 RAY&HARTSON          5923410             
  5923912#1                  6.59    220.00      2.71    1.3790 RAY&HARTSON          5923912             
  5924308#1                  1.83     80.00      5.36    0.1450 RAY&HARTSON          5924108             
  5924710#1                  5.41    200.00      2.26    3.1940 RAY&HARTSON          5924710             
  5925008#1                  0.79     80.00      2.87    7.2600 RAY&HARTSON          5925008             
  5925212#1                  7.14    150.00      1.66    9.1480 RAY&HARTSON          5925212             
  5925310#1                 29.39    470.00      0.77   14.5200 RAY&HARTSON          5925310             
  5926708#1                 15.05    360.00      2.26    2.9040 RAY&HARTSON          5926708             
  5927615#1                 11.93    390.00      2.33    8.7120 RAY&HARTSON          5927615             
  5927815#1                 18.28    320.00      2.47   11.6160 23RD&RAY             5927815             
  5928312#1                 15.47    470.00      1.71    9.9920 23RD&RAY             5928312             
  5929008#1                  8.92    280.00      1.39   18.8760 23RD&RAY             5929008             
  5933212#1                  3.32    130.00      2.58    0.2420 RAY&HARTSON          5933212             
  5933412#1                 18.31    200.00      2.24    1.4400 RAY&HARTSON          5933410             
  5933612#1                  1.39     70.00      3.46    0.2420 RAY&HARTSON          5933612             
  5933908#1                  2.82    130.00      3.48    0.2420 RAY&HARTSON          5933908             
  5934310#1                  7.08    200.00      1.80    0.6050 RAY&HARTSON          5934310             
  5934410#1                  4.51    180.00      2.16    2.0740 RAY&HARTSON          5934410             
  5934512#1                  4.98    160.00      2.31    0.5570 RAY&HARTSON          5934512             
  5934912#1                  5.97    100.00      2.21    0.5630 RAY&HARTSON          5934912             
  5935110#1                  5.26    230.00      1.85    0.6900 RAY&HARTSON          5935110             
  5935312#1                  7.12    200.00      2.00    0.8210 RAY&HARTSON          5935312             
  5935610#1                  5.10    230.00      2.41    0.6450 RAY&HARTSON          5935610             
  5938410#1                 47.72    550.00      0.18    2.7520 RAY&HARTSON          5938410             
  5939610#1                 36.11    620.00      1.41   36.3000 23RD&RAY             5939610             
  5940266#1                  6.38    200.00      0.87    3.6300 RAY&HARTSON          5940266CD           
  5941154#1                 38.77    870.00      0.69    5.4570 RAY&HARTSON          5941154CD           
  5941354#1                  4.70    220.00      2.97    0.2110 RAY&HARTSON          5941354CD           
  5941648#1                  5.78    440.00      1.16    3.8980 RAY&HARTSON          5941648CD           
  5941842#1                 15.22    550.00      2.15    3.3010 RAY&HARTSON          5938924CD           
  5942042#1                  5.23    440.00      4.11    3.7540 RAY&HARTSON          5942342CD           
  5942242#1                 15.61    440.00      1.98    6.4000 RAY&HARTSON          1344024ST           
  5951008#1                  3.21    160.00      3.09    6.2440 RAY&HARTSON          5951008             
  5953410#1                  8.84    280.00      1.84   10.0190 23RD&RAY             5953410             
  5954808#1                  7.19    390.00      2.77    5.2270 23RD&RAY             5954808             
  6000636#1                  1.96    423.00     34.97    0.0130 ROCKWOOD_VISTA       6000636             
  6002242#1                  9.14    440.00     12.97    0.0780 ROCKWOOD_VISTA       6005942             
  6002430#1                  6.43    440.00     10.31    0.0950 ROCKWOOD_VISTA       6002430             
  6002524#1                  8.87    480.00     18.61    0.0530 ROCKWOOD_VISTA       6002524             
  6003824#1                 14.49    800.00     16.12    0.0560 ROCKWOOD_VISTA       6003824             
  6004122#1                 24.45    800.00     17.88    0.3850 ROCKWOOD_VISTA       6004122             
  6004824#1                  5.07    440.00     22.28    0.2460 ROCKWOOD_VISTA       6004824             
  6005320#1                 19.42    680.00     23.51    0.0330 ROCKWOOD_VISTA       6005320             
  6005720#1                  9.09    720.00     21.76    0.0190 ROCKWOOD_VISTA       6005720             
  6006542#1                  6.12    400.00     21.53    0.0190 ROCKWOOD_VISTA       6006542             
  6006642#1                 13.65    880.00     19.26    0.0200 ROCKWOOD_VISTA       6006642             
  6006842#1                 15.82    880.00     19.44    0.0400 ROCKWOOD_VISTA       6006842             
  6007530#1                  2.97    640.00     20.54    0.0550 ROCKWOOD_VISTA       6007530             
  6008910#1                 10.67    440.00     13.40    0.3300 ROCKWOOD_VISTA       6400522             
  6020621#1                  4.26    293.00     31.27    0.0660 ROCKWOOD_VISTA       6020621             
  6020821#1                 13.89    390.00     39.10    0.0220 ROCKWOOD_VISTA       6008321             
  6021424#1                 15.87    455.00     39.86    0.0330 ROCKWOOD_VISTA       6021424             
  6021910#1                 11.30    520.00     43.58    0.0330 ROCKWOOD_VISTA       6021910             
  6022108#1                  4.79    455.00     24.95    0.0220 ROCKWOOD_VISTA       6022108             
  6024112#1                  8.49    204.75     68.94    0.0900 ROCKWOOD_VISTA       6024112             
  6024312#1                  6.73    295.75     44.97    0.0680 ROCKWOOD_VISTA       6024312             
  6025318#1                  2.22    480.00     28.32    0.0300 ROCKWOOD_VISTA       6025318             
  6025924#1                  1.58    400.00     20.81    0.0090 ROCKWOOD_VISTA       6025924             
  6026936#1                 42.24    880.00     16.81    0.0680 ROCKWOOD_VISTA       6026936             
  6029110#1                 14.02    400.00     12.57    0.0600 ROCKWOOD_VISTA       6029110             
  6029608#1                 19.14    640.00     11.66    0.2750 ROCKWOOD_VISTA       6029608             
  6030512#1                 11.15    560.00     16.92    0.1100 ROCKWOOD_VISTA       6030512             
  6032608#1                  8.82    400.00     18.45    0.0880 ROCKWOOD_VISTA       6032608             
  6033315#1                 19.47    560.00     18.64    0.0300 ROCKWOOD_VISTA       6033315             
  6035218#1                 24.55    227.50     27.38    0.0630 ROCKWOOD_VISTA       6035218             
  6035510#1                 31.95    227.50     25.46    0.1200 ROCKWOOD_VISTA       6035510             
  6035710#1                 13.95    211.25     25.44    1.1250 ROCKWOOD_VISTA       6035710             
  6037024#1                 14.62    880.00     13.80    0.0380 ROCKWOOD_VISTA       6037024             
  6037320#1                 27.50    800.00     17.75    0.0380 ROCKWOOD_VISTA       6037320             
  6037420#1                 39.58    960.00     15.49    0.0480 ROCKWOOD_VISTA       6037420             
  6037520#1                 39.86   1040.00     16.68    0.0330 ROCKWOOD_VISTA       6037520             
  6037620#1                 14.90    720.00     18.84    0.0360 ROCKWOOD_VISTA       6037620             
  6037720#1                 20.41    800.00     16.08    0.0550 ROCKWOOD_VISTA       6037720             
  6038410#1                  5.12    800.00     18.96    0.0300 ROCKWOOD_VISTA       6038410             
  6039208#1                 16.64    840.00     19.83    0.0220 ROCKWOOD_VISTA       6039208             
  6040008#1                  5.98    880.00     18.96    0.0370 ROCKWOOD_VISTA       6040008             
  6041015#1                 21.17    480.00     20.91    0.0370 ROCKWOOD_VISTA       6041015             
  6065108#1                 11.66    640.00     17.34    0.0350 ROCKWOOD_VISTA       6065108             
  6066312#1                 18.19    720.00     12.77    0.0880 ROCKWOOD_VISTA       6066312             
  6100124_1                  6.23    120.00      7.09   13.8000 DIVISION&MANITO      6100124             
  6100718_1                  8.27    240.00      5.08    8.2000 DIVISION&MANITO      6100718             
  6101218_1                  0.93    120.00      7.92    6.0000 DIVISION&MANITO      6101218             
  6103018_1                  0.00    396.00     19.03    5.2000 DIVISION&MANITO      6103018             
  6103527_1                 28.30     90.00      4.37    3.5000 DIVISION&MANITO      6103527             
  6103742_1                 13.01    240.00      4.83    4.0000 DIVISION&MANITO      6103742             
  6103924_1                 11.61    360.00      4.78    5.5000 DIVISION&MANITO      6103924             
  6104042_1                 19.24    420.00      4.65    5.3000 DIVISION&MANITO      6104042             
  6104242_1                 17.14    420.00      3.63    4.8000 DIVISION&MANITO      6104242             
  6105022_1                 11.44    300.00      3.92    5.7000 DIVISION&MANITO      6105022             
  6105242_1                  9.18    420.00      1.83    2.7000 DIVISION&MANITO      6105242             
  6105442_1                 17.04    240.00      3.16    1.9000 DIVISION&MANITO      6105442             
  6120215_1                 12.48    420.00      4.01    2.2000 DIVISION&MANITO      6120215             
  6120708_1                  3.06    420.00      5.10    2.7000 DIVISION&MANITO      6120708             
  6121008_1                  3.90    420.00      4.70    3.7000 DIVISION&MANITO      6121008             
  6122042_1                 18.49    420.00      3.57    2.7000 DIVISION&MANITO      6122042             
  6123412_1                 14.63    420.00      3.03    5.9000 DIVISION&MANITO      6123412             
  6123818_1                 17.42    324.00      3.87    2.6000 DIVISION&MANITO      6123818             
  6123918_1                 26.34    480.00      2.97    7.6000 DIVISION&MANITO      6123918             
  6124312_1                 18.10    480.00      3.31    2.3000 DIVISION&MANITO      6124312             
  6128912_1                 18.30    390.00      4.08    3.2000 DIVISION&MANITO      6128912             
  6129212_1                  3.02    420.00      4.49    4.9000 DIVISION&MANITO      6129212             
  6129312_1                 10.38    480.00      4.41    2.0000 DIVISION&MANITO      6129312             
  6129410_1                  8.04    480.00      4.01    1.8000 DIVISION&MANITO      6129410             
  6129508_1                 21.37    480.00      2.84    2.5000 DIVISION&MANITO      6129508             
  6131121_1                 17.27    480.00      4.14    1.9000 DIVISION&MANITO      6131121             
  6131218_1                 16.43    480.00      4.13    1.5000 DIVISION&MANITO      6131218             
  6131318_1                 14.08    480.00      4.27    1.8000 DIVISION&MANITO      6131318             
  6131518_1                 17.24    456.00      2.95    1.3000 DIVISION&MANITO      6131518             
  6131618_1                 13.25    420.00      3.13    1.0000 DIVISION&MANITO      6131618             
  6131718_1                  7.71    360.00      3.15    1.5000 DIVISION&MANITO      6131718             
  6131815_1                 23.86    420.00      2.83    1.7000 DIVISION&MANITO      6131815             
  6132012_1                 15.15    420.00      2.20    1.1000 DIVISION&MANITO      6132012             
  6132110_1                 12.47    600.00      1.46    0.5000 DIVISION&MANITO      6132110             
  6132208_1                  3.50    240.00      3.08    0.8000 DIVISION&MANITO      6132208             
  6132608_1                  6.64    270.00     14.15    0.7000 DIVISION&MANITO      6132608             
  6150210_1                  5.40    240.00      4.74    0.6000 DIVISION&MANITO      6150210             
  6155510_1                  2.98    200.00     14.40    2.0000 DIVISION&MANITO      6155510             
  6157510_1                 23.11    510.00      3.90    0.4000 DIVISION&MANITO      6157510             
  6157708_1                 12.37    480.00      4.29    1.6000 DIVISION&MANITO      6157708             
  6162008_1                  6.07    360.00      3.00    1.3000 DIVISION&MANITO      6131418             
  6163310_1                  8.63    360.00      3.41    1.8000 DIVISION&MANITO      6163310             
  6164110_1                 16.45    450.00      2.90    1.9000 DIVISION&MANITO      6164110             
  6165210_1                 15.64    240.00      3.66    1.0000 DIVISION&MANITO      6165210             
  6201612#1                  1.53    330.00     82.00    0.0020 RAY&HARTSON          6201612             
  6221208#1                  1.81     80.00     79.00    0.0020 RAY&HARTSON          6221208             
  6221308#1                  2.81    140.00     73.00    0.0020 RAY&HARTSON          6221308             
  6300718#1                 15.15    550.00      3.75    5.2610 23RD&RAY             6300718             
  6301018#1                 11.13    440.00      1.96    4.6460 23RD&RAY             6301018             
  6301215#1                  7.64    550.00      3.43    3.4740 23RD&RAY             6301215             
  6301408#1                  9.56    490.00      2.42    5.6320 23RD&RAY             6301408             
  6301708#1                  5.45    490.00      3.81    2.3630 23RD&RAY             6301708             
  6302312#1                  5.57    230.00      2.01    0.7260 RAY&HARTSON          6302312             
  6302708#1                  5.64    550.00      0.87    1.7070 RAY&HARTSON          5942042CD           
  6303836#1                  4.45    260.00      2.11    7.0060 RAY&HARTSON          6303836             
  6304136#1                 17.86    490.00      1.98    2.7710 RAY&HARTSON          6304136             
  6304336#1                 16.81    550.00      2.42    3.2000 RAY&HARTSON          6304336             
  6304427#1                 10.40    650.00      2.28    3.9310 RAY&HARTSON          6304427             
  6304927#1                 13.29    550.00      2.87    2.8060 23RD&RAY             6304927             
  6305130#1                 16.72    490.00      2.44    5.3310 23RD&RAY             6305130             
  6305427#1                  7.78    550.00      4.14    3.8400 23RD&RAY             6305427             
  6305727#1                 27.70    520.00      3.16    4.4800 23RD&RAY             6305727             
  6305830#1                 30.24    490.00      3.81    1.7090 23RD&RAY             6305830CD           
  6306024#1                 10.94    680.00      4.18    1.2300 23RD&RAY             6306024             
  6306224#1                 41.94    750.00      4.14    2.0570 23RD&RAY             6306224             
  6306521#1                 35.15   1080.00      2.01    4.3180 23RD&RAY             6306521             
  6306718#1                 28.97    610.00      4.68    2.7430 23RD&RAY             6306718             
  6307012#1                 11.92    680.00      5.54    0.9600 23RD&RAY             6307012             
  6309712#1                 12.96    230.00      2.04    0.3630 RAY&HARTSON          6309712             
  6309912#1                  6.97    230.00      1.70    0.7260 RAY&HARTSON          6309912             
  6310612#1                  9.40    200.00      2.29    0.7260 RAY&HARTSON          6310612             
  6310810#1                 13.87    260.00      1.93    0.4840 RAY&HARTSON          6310810             
  6311042#1                  8.33    130.00      2.15    0.4840 RAY&HARTSON          6311042             
  6311142#1                 11.19    230.00      2.36    0.9310 RAY&HARTSON          6311142             
  6311324#1                 14.00    290.00      0.83    1.4520 RAY&HARTSON          6311324             
  6311630#1                 17.41    320.00      1.18    2.4200 RAY&HARTSON          6311636             
  6311836#1                 30.09    360.00      0.97    1.2100 RAY&HARTSON          6311836             
  6312430#1                  6.32    130.00      2.41    0.6050 RAY&HARTSON          6312430             
  6312527#1                  2.42    120.00      3.26    0.8470 RAY&HARTSON          6312527             
  6312727#1                  1.25     70.00      2.23    0.8640 RAY&HARTSON          6312727             
  6312827#1                  3.65    100.00      2.27    0.2420 RAY&HARTSON          6312827             
  6313027#1                  5.23    160.00      0.95    0.2420 RAY&HARTSON          6313027             
  6313221#1                 16.94    320.00      0.79    0.9080 RAY&HARTSON          6313221             
  6317142#1                  5.78    200.00      1.96    0.8470 RAY&HARTSON          6317142             
  6317242#1                  9.17    200.00      2.12    0.1210 RAY&HARTSON          6317242             
  6321410#1                  0.35    390.00      2.48    6.0500 23RD&RAY             6321410             
  6322210#1                  3.00    330.00      2.62    4.4540 RAY&HARTSON          6322210             
  6323210#1                  6.63    100.00      2.66    8.0710 RAY&HARTSON          6323210             
  6324015#1                 16.72    330.00      2.78    3.5010 RAY&HARTSON          6324015             
  6325015#1                 17.77    600.00      3.25    3.2000 RAY&HARTSON          6325015             
  6326810#1                  6.61    440.00      1.66    5.7600 23RD&RAY             6326810             
  6327008#1                 10.82    440.00      2.13    5.1200 RAY&HARTSON          6327008             
  6327415#1                 15.17    870.00      1.87    8.3200 23RD&RAY             6327415             
  6327515#1                  3.10    220.00      5.20    7.0400 RAY&HARTSON          6327515             
  6327615#1                  4.43    490.00      3.48    3.8400 23RD&RAY             6327615             
  6327812#1                 16.02    870.00      3.02    5.7600 23RD&RAY             6327812             
  6328012#1                  4.84    600.00      3.48    8.3200 23RD&RAY             6328012             
  6328110#1                 10.89    870.00      2.80    5.7600 23RD&RAY             6328110             
  6328808#1                  3.55    390.00      5.11    3.8400 RAY&HARTSON          6304630             
  6330812#1                 24.31    920.00      1.62    6.4000 23RD&RAY             6330812             
  6331715#1                 11.32    550.00      2.69    5.1200 23RD&RAY             6331715             
  6332012#1                 19.63    710.00      3.10    2.5090 23RD&RAY             6332012             
  6333015#1                 42.20    760.00      1.68    3.9680 23RD&RAY             6333015             
  6335112#1                 20.18    600.00      3.21    1.8180 23RD&RAY             6335112             
  6336615#1                 13.12    810.00      3.96    2.9600 23RD&RAY             6336615             
  6339010#1                 17.43    810.00      5.15    1.2800 23RD&RAY             6339010             
  6339718#1                 26.84    610.00      4.38    0.6640 23RD&RAY             6339718             
  6340310#1                 17.61    540.00      4.22    0.8080 23RD&RAY             6340310             
  6342110#1                  7.93    200.00      2.04    0.5690 RAY&HARTSON          6342110             
  6342610#1                  9.22    325.00     23.99    0.0030 ROCKWOOD_VISTA       6090212             
  6343012#1                  8.86    150.00      2.90    0.7450 RAY&HARTSON          6343012             
  6344010#1                 14.33    180.00      1.21    0.9310 RAY&HARTSON          6344010             
  6345930#1                  5.71    200.00      1.69    1.9360 RAY&HARTSON          6345930             
  6346130#1                 16.12    260.00      1.64    0.9080 RAY&HARTSON          6346130             
  6346321#1                 31.37    320.00      1.21    0.6050 RAY&HARTSON          6346321             
  6346421#1                  1.33     80.00      3.18    0.8640 RAY&HARTSON          6346421             
  6346518#1                 34.78    320.00      0.72    0.5570 RAY&HARTSON          6346518             
  6346715#1                 30.84    520.00      0.66    1.0280 RAY&HARTSON          6346715             
  6346815#1                  8.17    160.00      1.11    0.9880 RAY&HARTSON          6346815             
  6347524#1                 20.72    240.00      1.83    0.8800 RAY&HARTSON          6347524             
  6347821#1                  9.15    230.00      2.65    1.2580 RAY&HARTSON          6347821             
  6347918#1                  5.76    160.00      2.04    1.0970 RAY&HARTSON          6347918             
  6348610#1                  6.62    130.00      1.02    0.6050 RAY&HARTSON          6348610             
  6350010#1                  7.71    160.00      1.73    1.2340 RAY&HARTSON          6350010             
  6350210#1                  9.96    440.00      3.71    2.2900 23RD&RAY             6350210             
  6351010#1                  4.78    650.00      4.34    3.2000 23RD&RAY             6351010             
  6351210#1                  3.80    650.00      3.37    1.9900 23RD&RAY             6351210             
  6352108#1                  5.28    650.00      2.21    2.6420 23RD&RAY             6352108             
  6352508#1                  0.71    120.00      7.47    4.1140 RAY&HARTSON          6352508             
  6353008#1                 10.82    440.00      2.13    5.1200 23RD&RAY             6327008             
  6354808#1                  9.95    710.00      1.94    5.4400 23RD&RAY             6354510             
  6355210#1                  3.88    600.00      3.41    8.0470 23RD&RAY             6355210             
  6355906#1                  2.90    360.00      4.26    3.2000 23RD&RAY             6304727             
  6356010#1                  6.85    330.00      2.99    5.7600 23RD&RAY             6356010             
  6362408#1                 11.63    210.00      1.15    0.6050 RAY&HARTSON          6362408             
  6362712#1                  7.80    290.00      0.75    0.4840 RAY&HARTSON          6362712             
  6363515#1                 11.76    290.00      1.03    0.9680 RAY&HARTSON          6363515             
  6373108#1                 10.98    230.00      1.75    0.2340 RAY&HARTSON          6373108             
  6374810#1                 17.12   1200.00      1.65    3.3730 23RD&RAY             6374810             
  6381821#1                 43.34    390.00      0.57    0.9680 RAY&HARTSON          6381821             
  6382015#1                  8.97    320.00      1.51    0.6280 RAY&HARTSON          6382015             
  6382212#1                  8.55    160.00      1.19    0.6050 RAY&HARTSON          6382212             
  6400136#1                 16.88    760.00     17.10    0.1100 ROCKWOOD_VISTA       6400136             
  6401218#1                 15.87    560.00     15.34    0.0500 ROCKWOOD_VISTA       6401218             
  6401518#1                 41.60    600.00     15.17    0.0720 ROCKWOOD_VISTA       6401518             
  6401815#1                 29.21    560.00     16.43    0.0550 ROCKWOOD_VISTA       6401815             
  6401918#1                 28.08    480.00     14.54    0.0380 ROCKWOOD_VISTA       6401918             
  6402618#1                 21.36    560.00     14.89    0.0380 ROCKWOOD_VISTA       6402618             
  6402915#1                 28.89    880.00     14.59    0.0330 ROCKWOOD_VISTA       6402915             
  6403212#1                 18.86    880.00     21.38    0.0300 ROCKWOOD_VISTA       6403212             
[...]
  6704508P         CIRCULAR             0.67     0.35     0.17     0.67        1     1.49
  6704608P         CIRCULAR             0.67     0.35     0.17     0.67        1     0.94
  6704708P         CIRCULAR             0.67     0.35     0.17     0.67        1     0.86
  6704808P         CIRCULAR             0.67     0.35     0.17     0.67        1     0.78
  6704908P         CIRCULAR             0.67     0.35     0.17     0.67        1     0.77
  6706318P         CIRCULAR             1.50     1.77     0.38     1.50        1     5.75
  6710308P         CIRCULAR             0.67     0.35     0.17     0.67        1     0.74
  6710410P         CIRCULAR             0.67     0.35     0.17     0.67        1     3.99
  6710510P         CIRCULAR             0.83     0.54     0.21     0.83        1     3.94
  6710610P         CIRCULAR             0.67     0.35     0.17     0.67        1     2.36
  6710710P         CIRCULAR             0.67     0.35     0.17     0.67        1     2.38
  6710810P         CIRCULAR             0.67     0.35     0.17     0.67        1     2.48
  6710910P         CIRCULAR             0.67     0.35     0.17     0.67        1     2.22
  6711010P         CIRCULAR             0.83     0.54     0.21     0.83        1     3.38
  6711110P         CIRCULAR             0.83     0.54     0.21     0.83        1     4.15
  6711310P         CIRCULAR             0.83     0.54     0.21     0.83        1     3.44
  6711410P         CIRCULAR             0.83     0.54     0.21     0.83        1     3.25
  6717410P         CIRCULAR             0.83     0.54     0.21     0.83        1     3.41
  6720110P         CIRCULAR             0.83     0.54     0.21     0.83        1     2.39
  6720210P         CIRCULAR             0.83     0.54     0.21     0.83        1     2.00
  6720310P         CIRCULAR             0.83     0.54     0.21     0.83        1     4.12
  6720410P         CIRCULAR             0.83     0.54     0.21     0.83        1     5.24
  6720510P         CIRCULAR             0.83     0.54     0.21     0.83        1     2.01
  6720610P         CIRCULAR             0.83     0.54     0.21     0.83        1     2.57
  6720710P         CIRCULAR             0.83     0.54     0.21     0.83        1     1.39
  6729118P         CIRCULAR             1.50     1.77     0.38     1.50        1     8.55
  6729218P         CIRCULAR             1.50     1.77     0.38     1.50        1     9.88
  6729318P         CIRCULAR             1.50     1.77     0.38     1.50        1     7.73
  6729415P         CIRCULAR             1.50     1.77     0.38     1.50        1     7.70
  6729512P         CIRCULAR             1.50     1.77     0.38     1.50        1     7.69
  6734924P         CIRCULAR             2.00     3.14     0.50     2.00        1    23.18
  6745818P         CIRCULAR             2.00     3.14     0.50     2.00        1    17.05
  6767810P         CIRCULAR             0.83     0.54     0.21     0.83        1     3.82
  6800310P         CIRCULAR             0.83     0.54     0.21     0.83        1     2.20
  6800410P         CIRCULAR             0.83     0.54     0.21     0.83        1     2.18
  6800508P         CIRCULAR             0.67     0.35     0.17     0.67        1     1.22
  6800608P         CIRCULAR             0.67     0.35     0.17     0.67        1     1.12
  6800708P         CIRCULAR             0.67     0.35     0.17     0.67        1     1.17
  6800808P         CIRCULAR             0.67     0.35     0.17     0.67        1     1.14
  6800908P         CIRCULAR             0.67     0.35     0.17     0.67        1     1.14
  6801008P         CIRCULAR             0.67     0.35     0.17     0.67        1     1.12
  6801108P         CIRCULAR             0.67     0.35     0.17     0.67        1     1.14
  6801208P         CIRCULAR             0.67     0.35     0.17     0.67        1     1.04
  6801308P         CIRCULAR             0.67     0.35     0.17     0.67        1     0.79
  6SDMH_3P         CIRCULAR             3.00     7.07     0.75     3.00        1   102.87
  6SDMH_5P         CIRCULAR             1.00     0.79     0.25     1.00        1    11.76
  90065P           CIRCULAR             3.00     7.07     0.75     3.00        1   754.63
  90066P           CIRCULAR             3.00     7.07     0.75     3.00        1    29.65
  90067P           CIRCULAR             3.00     7.07     0.75     3.00        1    40.01
  90068P           CIRCULAR             3.00     7.07     0.75     3.00        1    40.02
  90183P           CIRCULAR             1.00     0.79     0.25     1.00        1     4.31
  90184P           CIRCULAR             1.00     0.79     0.25     1.00        1     5.99
  90185P           CIRCULAR             1.00     0.79     0.25     1.00        1     8.29
  90186P           CIRCULAR             1.00     0.79     0.25     1.00        1     6.93
  90187P           CIRCULAR             1.25     1.23     0.31     1.25        1     9.57
  90188P           CIRCULAR             1.25     1.23     0.31     1.25        1     3.44
  9018930P         CIRCULAR             2.50     4.91     0.62     2.50        1    40.39
  90190P           CIRCULAR             2.25     3.98     0.56     2.25        1    68.82
  90191P           CIRCULAR             2.25     3.98     0.56     2.25        1    35.53
  90193P           CIRCULAR             2.25     3.98     0.56     2.25        1    65.05
  90249P           CIRCULAR             1.25     1.23     0.31     1.25        1    15.05
  9032530P         CIRCULAR             2.50     4.91     0.62     2.50        1    20.50
  9034730P         CIRCULAR             2.50     4.91     0.62     2.50        1   163.27
  9034830P         CIRCULAR             2.50     4.91     0.62     2.50        1    92.14
  9034930P         CIRCULAR             2.50     4.91     0.62     2.50        1    21.51
  9035030P         CIRCULAR             2.50     4.91     0.62     2.50        1    21.28
  90989912P        CIRCULAR             1.00     0.79     0.25     1.00        1     7.54
  9TH&PERRYORIFICE CIRCULAR             0.67     0.35     0.17     0.67        1     1.93
  ANNEXPIPE        CIRCULAR             1.25     1.23     0.31     1.25        1     3.64
  AWPDISCHARGEFM   FORCE_MAIN           0.83     0.54     0.21     0.83        1     5.80
  BRCTI_1          CIRCULAR             1.50     1.77     0.38     1.50        1    93.14
  BRCTI_2          CIRCULAR             0.83     0.54     0.21     0.83        1     3.39
  BRDIV1_1         CIRCULAR             1.50     1.77     0.38     1.50        1   121.21
  BRDIV3_1         CIRCULAR             1.50     1.77     0.38     1.50        1   123.64
  BRDIV_2_2        CIRCULAR             1.50     1.77     0.38     1.50        1   128.53
  BRDRAN_1_1       CIRCULAR             1.50     1.77     0.38     1.50        1    52.69
  BRDRAN_2_1       CIRCULAR             1.50     1.77     0.38     1.50        1    52.69
  BRDRIV_4_1       CIRCULAR             1.50     1.77     0.38     1.50        1   124.59
  BRFCC_2          RECT_CLOSED         12.00    96.00     2.40     8.00        1  2782.14
  BRINT_1          CIRCULAR             1.00     0.79     0.25     1.00        1    12.18
  BRSTOR_1         CIRCULAR             7.00    38.48     1.75     7.00        1   675.81
  BRSTOR_2         CIRCULAR             7.00    38.48     1.75     7.00        1   679.58
  BVLTDS1          RECT_CLOSED         12.00    96.00     2.40     8.00        1  3592.37
  CDT-11           CIRCULAR             2.00     3.14     0.50     2.00        1    29.53
  CDT-15           CIRCULAR             1.50     1.77     0.38     1.50        1    15.97
  CDT-17           CIRCULAR             1.50     1.77     0.38     1.50        1    14.55
  CDT-19           CIRCULAR             1.25     1.23     0.31     1.25        1    10.78
  CDT-21           CIRCULAR             0.83     0.54     0.21     0.83        1     2.85
  CDT-23           CIRCULAR             0.67     0.35     0.17     0.67        1     2.62
  CDT-29           CIRCULAR             2.50     4.91     0.62     2.50        1    22.65
  CDT21            CIRCULAR             1.25     1.23     0.31     1.25        1     6.44
  CLKPUMP_1        CIRCULAR             2.00     3.14     0.50     2.00        1     1.43
  CLKPUMP_2        CIRCULAR             2.00     3.14     0.50     2.00        1    65.00
  CLK_0            CIRCULAR             3.00     7.07     0.75     3.00        1    46.13
  CLK_1            CIRCULAR             3.00     7.07     0.75     3.00        1     8.61
  CLK_2            CIRCULAR             3.00     7.07     0.75     3.00        1   396.59
  CLK_3            CIRCULAR             3.00     7.07     0.75     3.00        1    12.18
  CLK_4            CIRCULAR             3.00     7.07     0.75     3.00        1   396.59
  CLK_5            CIRCULAR             3.00     7.07     0.75     3.00        1     4.18
  CLOSED_PIPE      CIRCULAR             0.33     0.09     0.08     0.33        1     0.03
  CSO23-1CTI       RECT_TRIANGULAR     15.00    94.50     2.35     7.00        1  1322.20
  CSO23-1CTI_2     CIRCULAR             1.75     2.41     0.44     1.75        1    78.15
  CSO23-1STOR      CIRCULAR             4.00    12.57     1.00     4.00        1   251.83
  CSO42_REGULATOR  CIRCULAR             1.00     0.79     0.25     1.00        1     0.50
  DMYPIPE          CIRCULAR             3.00     7.07     0.75     3.00        1    57.76
  ELMPUMP1         CIRCULAR             0.67     0.35     0.17     0.67        1     4.11
  ELMPUMP2         CIRCULAR             0.67     0.35     0.17     0.67        1     6.50
  ELMPUMP3         CIRCULAR             0.67     0.35     0.17     0.67        1     1.84
  HUTTONORIFICE    CIRCULAR             1.00     0.79     0.25     1.00        1    22.48
  I02INTSEG        CIRCULAR             4.50    15.90     1.12     4.50        1   206.25
  I04_SIPH         CIRCULAR             2.00     3.14     0.50     2.00        1    23.73
  I07CCTI_1        CIRCULAR             2.00     3.14     0.50     2.00        1     8.22
  I07CCTI_2        CIRCULAR             2.00     3.14     0.50     2.00        1    10.12
  I07CCTI_3        CIRCULAR             2.00     3.14     0.50     2.00        1     7.94
  I07CCTI_4        CIRCULAR             1.50     1.77     0.38     1.50        1     1.49
  I07CCTI_5        CIRCULAR             2.00     3.14     0.50     2.00        1     8.00
  I07CCTI_6        CIRCULAR             2.00     3.14     0.50     2.00        1     8.09
  I07CFW_1         RECT_CLOSED          8.00    72.00     2.12     9.00        1   963.29
  I07CFW_2         RECT_CLOSED          8.00    72.00     2.12     9.00        1   963.29
  I07CFW_3         RECT_CLOSED          8.00    72.00     2.12     9.00        1   963.29
  I07CFW_4         RECT_CLOSED          8.00    72.00     2.12     9.00        1   963.29
  I07CFW_5         RECT_CLOSED          8.00    72.00     2.12     9.00        1   963.29
  I07CPUMP_DIS     FORCE_MAIN           0.33     0.09     0.08     0.33        1     0.02
  L275             CIRCULAR             5.75    25.97     1.44     5.75        1   207.43
  LINK101          CIRCULAR             1.50     1.77     0.38     1.50        1     5.19
  LINK157          CIRCULAR             0.83     0.54     0.21     0.83        1     4.18
  LINK158          CIRCULAR             0.83     0.54     0.21     0.83        1     3.14
  LINK450          CIRCULAR             2.00     3.14     0.50     2.00        1    29.71
  LINK451          CIRCULAR             2.00     3.14     0.50     2.00        1    32.00
  LINK486          CIRCULAR             3.00     7.07     0.75     3.00        1   126.75
  LINK722          CIRCULAR             1.50     1.77     0.38     1.50        1    11.81
  MAPLE_N_SIPHON_P1 CIRCULAR             1.17     1.07     0.29     1.17        2    48.96
  MAPLE_N_SIPHON_P2 CIRCULAR             1.17     1.07     0.29     1.17        2    40.36
  MAPLE_N_SIPHON_P3 CIRCULAR             1.17     1.07     0.29     1.17        2     5.38
  MAPLE_N_SIPHON_P4 CIRCULAR             1.17     1.07     0.29     1.17        2    40.89
  MAPLE_N_SIPHON_P5 CIRCULAR             1.17     1.07     0.29     1.17        2    49.97
  M_HAYFM          CIRCULAR             2.00     3.14     0.50     2.00        1    22.76
  NEW_OF           CIRCULAR             1.25     1.23     0.31     1.25        1    31.09
  NLTBYPASS        CIRCULAR            10.00    78.54     2.50    10.00        1  7471.47
  NLTSTORAGEOVERFLOW RECT_CLOSED          5.00    50.00     1.67    10.00        1 11074.43
  NSIP             CIRCULAR             3.00     7.07     0.75     3.00        1   141.56
  NSIP2            CIRCULAR             3.00     7.07     0.75     3.00        1   141.56
  NVIP             CIRCULAR             3.50     9.62     0.88     3.50        1    34.00
  PIPE1            CIRCULAR             0.83     0.54     0.21     0.83        1     7.93
  PIPE2-1          CIRCULAR             0.83     0.54     0.21     0.83        1     3.19
  PIPE3-2          CIRCULAR             0.83     0.54     0.21     0.83        1     1.52
  ROCKWOODPLOF_P   CIRCULAR             1.50     1.77     0.38     1.50        1   108.56
  SAWTPINP         CIRCULAR             6.00    28.27     1.50     6.00        1   527.35
  SDMH_4P          CIRCULAR             4.00    12.57     1.00     4.00        1    87.52
  SIPHON_          CIRCULAR             5.00    19.63     1.25     5.00        1   234.68
  SIPHON_1         CIRCULAR             0.83     0.54     0.21     0.83        1     1.95
  SIPHON_2         CIRCULAR             1.33     1.39     0.33     1.33        1     5.77
  SIPHON_3         CIRCULAR             2.35     4.35     0.59     2.35        1    38.18
  SIPH_EQUIV       CIRCULAR             1.50     1.77     0.38     1.50        1     7.99
  SM03009P         CIRCULAR             3.00     7.07     0.75     3.00        1   140.14
  SSOUTP           CIRCULAR             0.50     0.20     0.12     0.50        1     3.39
  SVIP             CIRCULAR             4.00    12.57     1.00     4.00        1   164.78
  TMPOND_GRATEINLET CIRCULAR             1.00     0.79     0.25     1.00        1    18.27
  TMTO65008        CIRCULAR             1.00     0.79     0.25     1.00        1    10.78
  YARDLEYP         CIRCULAR             1.25     1.23     0.31     1.25        1     3.23
  
  
  *************
  Shape Summary
  *************

  Shape 10_CTI
  Area:  
              0.0019     0.0065     0.0206     0.0415     0.0623 
              0.0831     0.1040     0.1248     0.1456     0.1665 
              0.1873     0.2082     0.2290     0.2498     0.2707 
              0.2915     0.3124     0.3332     0.3540     0.3749 
              0.3957     0.4165     0.4374     0.4582     0.4791 
              0.4999     0.5207     0.5416     0.5624     0.5832 
              0.6041     0.6249     0.6458     0.6666     0.6874 
              0.7083     0.7291     0.7499     0.7708     0.7916 
              0.8125     0.8333     0.8541     0.8750     0.8958 
              0.9166     0.9375     0.9583     0.9792     1.0000 
  Hrad:  
              0.0638     0.1366     0.1229     0.2272     0.3160 
              0.3924     0.4589     0.5173     0.5690     0.6151 
              0.6565     0.6938     0.7276     0.7584     0.7865 
              0.8124     0.8362     0.8582     0.8786     0.8976 
              0.9153     0.9318     0.9473     0.9618     0.9754 
              0.9883     1.0004     1.0119     1.0227     1.0330 
              1.0428     1.0521     1.0609     1.0693     1.0773 
              1.0850     1.0923     1.0993     1.1061     1.1125 
              1.1187     1.1246     1.1303     1.1358     1.1411 
              1.1462     1.1511     1.1558     1.1604     1.0000 
  Width: 
              0.1797     0.2381     1.0000     1.0000     1.0000 
              1.0000     1.0000     1.0000     1.0000     1.0000 
              1.0000     1.0000     1.0000     1.0000     1.0000 
              1.0000     1.0000     1.0000     1.0000     1.0000 
              1.0000     1.0000     1.0000     1.0000     1.0000 
              1.0000     1.0000     1.0000     1.0000     1.0000 
              1.0000     1.0000     1.0000     1.0000     1.0000 
              1.0000     1.0000     1.0000     1.0000     1.0000 
              1.0000     1.0000     1.0000     1.0000     1.0000 
              1.0000     1.0000     1.0000     1.0000     1.0000 

  Shape IO4_FLOWCONTROLVAULT
  Area:  
              0.0027     0.0076     0.0147     0.0241     0.0357 
              0.0495     0.0656     0.0839     0.1044     0.1262 
              0.1481     0.1699     0.1918     0.2136     0.2355 
              0.2573     0.2791     0.3010     0.3228     0.3447 
              0.3665     0.3884     0.4102     0.4321     0.4539 
              0.4757     0.4976     0.5194     0.5413     0.5631 
              0.5850     0.6068     0.6287     0.6505     0.6723 
              0.6942     0.7160     0.7379     0.7597     0.7816 
              0.8034     0.8252     0.8471     0.8689     0.8908 
              0.9126     0.9345     0.9563     0.9782     1.0000 
  Hrad:  
              0.0662     0.1153     0.1616     0.2069     0.2517 
              0.2963     0.3408     0.3851     0.4294     0.4902 
              0.5468     0.5982     0.6449     0.6877     0.7269 
              0.7631     0.7965     0.8274     0.8562     0.8831 
              0.9081     0.9316     0.9536     0.9743     0.9938 
              1.0122     1.0296     1.0461     1.0617     1.0765 
              1.0905     1.1039     1.1167     1.1289     1.1405 
              1.1516     1.1622     1.1724     1.1822     1.1915 
              1.2005     1.2092     1.2175     1.2255     1.2332 
              1.2406     1.2478     1.2547     1.2614     1.0000 
  Width: 
              0.1736     0.2757     0.3779     0.4800     0.5821 
              0.6843     0.7864     0.8886     0.9907     1.0000 
              1.0000     1.0000     1.0000     1.0000     1.0000 
              1.0000     1.0000     1.0000     1.0000     1.0000 
              1.0000     1.0000     1.0000     1.0000     1.0000 
              1.0000     1.0000     1.0000     1.0000     1.0000 
              1.0000     1.0000     1.0000     1.0000     1.0000 
              1.0000     1.0000     1.0000     1.0000     1.0000 
              1.0000     1.0000     1.0000     1.0000     1.0000 
              1.0000     1.0000     1.0000     1.0000     1.0000 
  
  
  ****************
  Analysis Options
  ****************
  Flow Units ............... CFS
  Process Models:
    Rainfall/Runoff ........ YES
    RDII ................... NO
    Snowmelt ............... NO
    Groundwater ............ NO
    Flow Routing ........... YES
    Ponding Allowed ........ NO
    Water Quality .......... NO
  Infiltration Method ...... GREEN_AMPT
  Flow Routing Method ...... DYNWAVE
  Surcharge Method ......... EXTRAN
  Starting Date ............ 10/23/2016 00:00:00
  Ending Date .............. 11/03/2016 00:00:00
  Antecedent Dry Days ...... 0.0
  Report Time Step ......... 00:01:00
  Wet Time Step ............ 00:01:00
  Dry Time Step ............ 00:01:00
  Routing Time Step ........ 60.00 sec
  Variable Time Step ....... YES
  Maximum Trials ........... 8
  Number of Threads ........ 1
  Head Tolerance ........... 0.005000 ft
  
  
  *********************
  Rainfall File Summary
  *********************
  Station    First        Last         Recording   Periods    Periods    Periods
  ID         Date         Date         Frequency  w/Precip    Missing    Malfunc.
  -------------------------------------------------------------------------------
  
  
  ERROR 317: cannot open rainfall data file C:\Users\KVANDYK\Documents\Spokane_Modeling\BReviewed\RainfallFiles\23RD&RAY.dat.

  Analysis begun on:  Wed Jun 24 17:35:59 2026
  Analysis ended on:  Wed Jun 24 17:36:00 2026
  Total elapsed time: 00:00:01