
  EPA STORM WATER MANAGEMENT MODEL - VERSION 5.2 (Build 5.2.4)
  ------------------------------------------------------------

  An example highlighting the difference between storage 
  units and junctions where conduits are surcharged. 
  Discussion here: https://www.openswmm.org/Topic/15519 
  
  ****************
  Analysis Options
  ****************
  Flow Units ............... LPS
  Process Models:
    Rainfall/Runoff ........ NO
    RDII ................... NO
    Snowmelt ............... NO
    Groundwater ............ NO
    Flow Routing ........... YES
    Ponding Allowed ........ NO
    Water Quality .......... NO
  Flow Routing Method ...... DYNWAVE
  Surcharge Method ......... SLOT
  Starting Date ............ 06/28/2017 00:00:00
  Ending Date .............. 06/28/2017 12:00:00
  Antecedent Dry Days ...... 0.0
  Report Time Step ......... 00:01:00
  Routing Time Step ........ 5.00 sec
  Variable Time Step ....... YES
  Maximum Trials ........... 8
  Number of Threads ........ 1
  Head Tolerance ........... 0.001000 m
  
  
  **************************        Volume        Volume
  Flow Routing Continuity        hectare-m      10^6 ltr
  **************************     ---------     ---------
  Dry Weather Inflow .......         0.000         0.000
  Wet Weather Inflow .......         0.000         0.000
  Groundwater Inflow .......         0.000         0.000
  RDII Inflow ..............         0.000         0.000
  External Inflow ..........         0.864         8.640
  External Outflow .........         0.589         5.894
  Flooding Loss ............         0.000         0.000
  Evaporation Loss .........         0.000         0.000
  Exfiltration Loss ........         0.000         0.000
  Initial Stored Volume ....         0.000         0.000
  Final Stored Volume ......         0.258         2.576
  Continuity Error (%) .....         1.969
  
  
  *************************
  Highest Continuity Errors
  *************************
  Node 5 (19.79%)
  Node 2 (19.63%)
  
  
  ***************************
  Time-Step Critical Elements
  ***************************
  Link 2 (2.03%)
  
  
  ********************************
  Highest Flow Instability Indexes
  ********************************
  Link 3 (4)
  Link 1 (3)
  
  
  *********************************
  Most Frequent Nonconverging Nodes
  *********************************
  Convergence obtained at all time steps.
  
  
  *************************
  Routing Time Step Summary
  *************************
  Minimum Time Step           :     0.30 sec
  Average Time Step           :     4.91 sec
  Maximum Time Step           :     5.00 sec
  % of Time in Steady State   :     0.00
  Average Iterations per Step :     2.00
  % of Steps Not Converging   :     0.00
  Time Step Frequencies       :
      5.000 -  0.910 sec      :    99.75 %
      0.910 -  0.166 sec      :     0.25 %
      0.166 -  0.030 sec      :     0.00 %
      0.030 -  0.005 sec      :     0.00 %
      0.005 -  0.001 sec      :     0.00 %
  
  
  ******************
  Node Depth Summary
  ******************
  
  ---------------------------------------------------------------------------------
                                 Average  Maximum  Maximum  Time of Max    Reported
                                   Depth    Depth      HGL   Occurrence   Max Depth
  Node                 Type       Meters   Meters   Meters  days hr:min      Meters
  ---------------------------------------------------------------------------------
  1                    JUNCTION     3.00     5.34    15.34     0  11:46        5.34
  2                    JUNCTION     3.47     5.84    15.34     0  11:46        5.84
  3                    OUTFALL      0.10     0.10     9.40     0  00:05        0.10
  6                    OUTFALL      0.10     0.10     9.40     0  00:05        0.10
  4                    STORAGE      2.98     5.34    15.34     0  12:00        5.34
  5                    STORAGE      3.45     5.84    15.34     0  12:00        5.84
  
  
  *******************
  Node Inflow Summary
  *******************
  
  -------------------------------------------------------------------------------------------------
                                  Maximum  Maximum                  Lateral       Total        Flow
                                  Lateral    Total  Time of Max      Inflow      Inflow     Balance
                                   Inflow   Inflow   Occurrence      Volume      Volume       Error
  Node                 Type           LPS      LPS  days hr:min    10^6 ltr    10^6 ltr     Percent
  -------------------------------------------------------------------------------------------------
  1                    JUNCTION    100.00   100.00     0  00:00        4.32        4.32      17.545
  2                    JUNCTION      0.00   111.63     0  04:27           0        3.68      24.427
  3                    OUTFALL       0.00   100.00     0  11:46           0        2.95       0.000
  6                    OUTFALL       0.00   100.00     0  12:00           0        2.94       0.000
  4                    STORAGE     100.00   100.00     0  00:00        4.32        4.32      17.670
  5                    STORAGE       0.00   111.57     0  04:22           0        3.67      24.669
  
  
  **********************
  Node Surcharge Summary
  **********************
  
  Surcharging occurs when water rises above the top of the highest conduit.
  ---------------------------------------------------------------------
                                               Max. Height   Min. Depth
                                   Hours       Above Crown    Below Rim
  Node                 Type      Surcharged         Meters       Meters
  ---------------------------------------------------------------------
  1                    JUNCTION        6.21          3.344        0.000
  2                    JUNCTION        7.00          3.844        0.000
  4                    STORAGE         6.18          3.344        0.000
  5                    STORAGE         6.99          3.844        0.000
  
  
  *********************
  Node Flooding Summary
  *********************
  
  No nodes were flooded.
  
  
  **********************
  Storage Volume Summary
  **********************
  
  ------------------------------------------------------------------------------------------------
                         Average    Avg   Evap  Exfil     Maximum    Max    Time of Max    Maximum
                          Volume   Pcnt   Pcnt   Pcnt      Volume   Pcnt     Occurrence    Outflow
  Storage Unit           1000 mł   Full   Loss   Loss     1000 mł   Full    days hr:min        LPS
  ------------------------------------------------------------------------------------------------
  4                        0.002   71.8    0.0    0.0       0.002  100.0       0  05:48     111.57
  5                        0.002   82.2    0.0    0.0       0.002  100.0       0  05:00     100.00
  
  
  ***********************
  Outfall Loading Summary
  ***********************
  
  -----------------------------------------------------------
                         Flow       Avg       Max       Total
                         Freq      Flow      Flow      Volume
  Outfall Node           Pcnt       LPS       LPS    10^6 ltr
  -----------------------------------------------------------
  3                     99.90     67.42    100.00       2.954
  6                     99.91     67.11    100.00       2.941
  -----------------------------------------------------------
  System                99.90    134.53    200.00       5.894
  
  
  ********************
  Link Flow Summary
  ********************
  
  -----------------------------------------------------------------------------
                                 Maximum  Time of Max   Maximum    Max/    Max/
                                  |Flow|   Occurrence   |Veloc|    Full    Full
  Link                 Type          LPS  days hr:min     m/sec    Flow   Depth
  -----------------------------------------------------------------------------
  1                    CONDUIT    111.63     0  04:27      1.74    0.02    1.00
  2                    CONDUIT    100.00     0  11:46     12.73    7.44    1.00
  3                    CONDUIT    111.57     0  04:22      1.51    0.02    1.00
  4                    CONDUIT    100.00     0  12:00     12.73    7.44    1.00
  
  
  ***************************
  Flow Classification Summary
  ***************************
  
  -------------------------------------------------------------------------------------
                      Adjusted    ---------- Fraction of Time in Flow Class ---------- 
                       /Actual         Up    Down  Sub   Sup   Up    Down  Norm  Inlet 
  Conduit               Length    Dry  Dry   Dry   Crit  Crit  Crit  Crit  Ltd   Ctrl  
  -------------------------------------------------------------------------------------
  1                       1.00   0.00  0.00  0.00  0.99  0.01  0.00  0.00  0.04  0.00
  2                       1.00   0.00  0.00  0.00  0.99  0.01  0.00  0.00  0.00  0.00
  3                       1.00   0.00  0.00  0.00  0.99  0.01  0.00  0.00  0.04  0.00
  4                       1.00   0.00  0.00  0.00  0.99  0.01  0.00  0.00  0.00  0.00
  
  
  *************************
  Conduit Surcharge Summary
  *************************
  
  ----------------------------------------------------------------------------
                                                           Hours        Hours 
                         --------- Hours Full --------   Above Full   Capacity
  Conduit                Both Ends  Upstream  Dnstream   Normal Flow   Limited
  ----------------------------------------------------------------------------
  1                           6.21      6.21      7.00      0.01         0.01
  2                          11.90     11.90     11.91     11.91        11.90
  3                           6.18      6.18      6.99      0.01         0.01
  4                          11.88     11.90     11.89     11.89        11.88
  

  Analysis begun on:  Wed Jun 24 17:37:14 2026
  Analysis ended on:  Wed Jun 24 17:37:14 2026
  Total elapsed time: < 1 sec