
  EPA STORM WATER MANAGEMENT MODEL - VERSION 5.2 (Build 5.2.4)
  ------------------------------------------------------------

  
  ****************
  Analysis Options
  ****************
  Flow Units ............... CFS
  Process Models:
    Rainfall/Runoff ........ YES
    RDII ................... NO
    Snowmelt ............... NO
    Groundwater ............ NO
    Flow Routing ........... YES
    Ponding Allowed ........ NO
    Water Quality .......... YES
  Infiltration Method ...... HORTON
  Flow Routing Method ...... KINWAVE
  Starting Date ............ 01/01/2000 00:00:00
  Ending Date .............. 12/31/2000 23:55:00
  Antecedent Dry Days ...... 0.0
  Report Time Step ......... 01:00:00
  Wet Time Step ............ 00:15:00
  Dry Time Step ............ 02:00:00
  Routing Time Step ........ 300.00 sec
  
  
  *********************
  Rainfall File Summary
  *********************
  Station    First        Last         Recording   Periods    Periods    Periods
  ID         Date         Date         Frequency  w/Precip    Missing    Malfunc.
  -------------------------------------------------------------------------------
  317069     06/02/1948   12/31/2002      60 min     29142          4          0

  
  
  **************************        Volume         Depth
  Runoff Quantity Continuity     acre-feet        inches
  **************************     ---------       -------
  Total Precipitation ......       660.464        37.070
  Evaporation Loss .........         0.000         0.000
  Infiltration Loss ........       331.511        18.607
  Surface Runoff ...........       331.621        18.613
  Final Storage ............         0.263         0.015
  Continuity Error (%) .....        -0.444
  
  
  **************************          BOD5         NITRO          PHOS          LEAD
  Runoff Quality Continuity            lbs           lbs           lbs           lbs
  **************************    ----------    ----------    ----------    ----------
  Initial Buildup ..........         0.000         0.000         0.000         0.000
  Surface Buildup ..........       822.311      1178.990       331.482        49.177
  Wet Deposition ...........         0.000         0.000         0.000         0.000
  Sweeping Removal .........         0.000         0.000         0.000         0.000
  Infiltration Loss ........         0.000         0.000         0.000         0.000
  BMP Removal ..............         0.000         0.000         0.000         0.000
  Surface Runoff ...........       564.715       911.910       293.034        44.112
  Remaining Buildup ........       257.597       267.080        38.448         5.065
  Continuity Error (%) .....         0.000         0.000         0.000         0.000
  
  
  **************************        Volume        Volume
  Flow Routing Continuity        acre-feet      10^6 gal
  **************************     ---------     ---------
  Dry Weather Inflow .......       195.997        63.868
  Wet Weather Inflow .......       331.621       108.064
  Groundwater Inflow .......         0.000         0.000
  RDII Inflow ..............         0.000         0.000
  External Inflow ..........         0.000         0.000
  External Outflow .........       367.762       119.841
  Flooding Loss ............       175.294        57.122
  Evaporation Loss .........         0.000         0.000
  Exfiltration Loss ........         0.000         0.000
  Initial Stored Volume ....        15.583         5.078
  Final Stored Volume ......         0.044         0.014
  Continuity Error (%) .....         0.019
  
  
  **************************          BOD5         NITRO          PHOS          LEAD
  Quality Routing Continuity           lbs           lbs           lbs           lbs
  **************************    ----------    ----------    ----------    ----------
  Dry Weather Inflow .......         0.000         0.000         0.000         0.000
  Wet Weather Inflow .......       564.715       911.910       293.034        44.112
  Groundwater Inflow .......         0.000         0.000         0.000         0.000
  RDII Inflow ..............         0.000         0.000         0.000         0.000
  External Inflow ..........         0.000         0.000         0.000         0.000
  External Outflow .........       226.755       533.218       174.573        22.195
  Flooding Loss ............       269.698       349.358       103.066        19.599
  Exfiltration Loss ........         0.000         0.000         0.000         0.000
  Mass Reacted .............         2.420         5.640        12.006         1.492
  Initial Stored Mass ......         0.000         0.000         0.000         0.000
  Final Stored Mass ........         0.000         0.000         0.000         0.000
  Continuity Error (%) .....        11.659         2.598         1.156         1.873
  
  
  ********************************
  Highest Flow Instability Indexes
  ********************************
  All links are stable.
  
  
  *************************
  Routing Time Step Summary
  *************************
  Minimum Time Step           :   300.00 sec
  Average Time Step           :   300.00 sec
  Maximum Time Step           :   300.00 sec
  % of Time in Steady State   :     0.00
  Average Iterations per Step :     1.04
  % of Steps Not Converging   :     0.00
  
  
  ***************************
  Subcatchment Runoff Summary
  ***************************
  
  ------------------------------------------------------------------------------------------------------------------------------
                            Total      Total      Total      Total     Imperv       Perv      Total       Total     Peak  Runoff
                           Precip      Runon       Evap      Infil     Runoff     Runoff     Runoff      Runoff   Runoff   Coeff
  Subcatchment                 in         in         in         in         in         in         in    10^6 gal      CFS
  ------------------------------------------------------------------------------------------------------------------------------
  5                         37.07       0.00       0.00       1.26      35.44       0.62      36.06        8.03     8.48   0.973
  6                         37.07       0.00       0.00       0.00      37.32       0.00      37.32        8.82     9.03   1.007
  7                         37.07       0.00       0.00      10.56      22.44       4.34      26.78        5.96     8.27   0.722
  8                         37.07       0.00       0.00       0.00      37.14       0.00      37.14        8.67     8.17   1.002
  9                         37.07       0.00       0.00       5.26      29.83       2.19      32.02        5.91     6.95   0.864
  10                        37.07       0.00       0.00      10.51      22.45       4.39      26.84        2.11     2.93   0.724
  12                        37.07       0.00       0.00      26.03       0.00      11.26      11.26        0.46     1.47   0.304
  13                        37.07       0.00       0.00      27.99       0.00       9.15       9.15        2.63     8.24   0.247
  14                        37.07       0.00       0.00      27.89       0.00       9.25       9.25        2.49     7.73   0.250
  15                        37.07       0.00       0.00      26.76       0.00      10.44      10.44        0.54     1.77   0.282
  16                        37.07       0.00       0.00      26.10       1.86       9.21      11.07        2.04     5.71   0.299
  17                        37.07       0.00       0.00       5.14      29.91       2.33      32.24        2.01     2.36   0.870
  18                        37.07       0.00       0.00      27.27       0.00       9.90       9.90        1.99     6.37   0.267
  19                        37.07       0.00       0.00      26.46       1.87       8.82      10.69        4.09    11.09   0.288
  20                        37.07       0.00       0.00      27.46       1.12       8.55       9.67        1.92     5.58   0.261
  21                        37.07       0.00       0.00      24.37       3.74       9.10      12.83        1.67     4.36   0.346
  22                        37.07       0.00       0.00      26.10       3.75       7.30      11.05        5.76    14.03   0.298
  24                        37.07       0.00       0.00       2.52      33.68       1.24      34.92        3.41     3.72   0.942
  25                        37.07       0.00       0.00      18.18      11.22       7.92      19.15        0.99     1.90   0.516
  26                        37.07       0.00       0.00       2.55      33.59       1.19      34.79        7.84     8.57   0.938
  27                        37.07       0.00       0.00      17.69      13.10       6.47      19.58       10.05    17.62   0.528
  28                        37.07       0.00       0.00      22.68       5.99       8.55      14.54        3.00     7.03   0.392
  29                        37.07       0.00       0.00      24.93       2.61       9.67      12.28        2.57     7.21   0.331
  30                        37.07       0.00       0.00      27.14       0.00      10.04      10.04        1.66     5.41   0.271
  31                        37.07       0.00       0.00      26.51       0.00      10.71      10.71        0.73     2.39   0.289
  33                        37.07       0.00       0.00      18.00      12.36       6.93      19.29        3.56     6.53   0.520
  42                        37.07       0.00       0.00      19.86      11.72       5.60      17.32        3.10     5.05   0.467
  51                        37.07       0.00       0.00      19.75      10.85       6.63      17.48        3.65     6.52   0.472
  54                        37.07       0.00       0.00      22.05       8.97       6.15      15.12        1.56     2.85   0.408
  55                        37.07       0.00       0.00      27.41       3.07       6.64       9.72        0.82     2.03   0.262
  
  
  ****************************
  Subcatchment Washoff Summary
  ****************************
  
  ----------------------------------------------------------------------------
                                BOD5         NITRO          PHOS          LEAD
  Subcatchment                   lbs           lbs           lbs           lbs
  ----------------------------------------------------------------------------
  5                          122.139        67.203        20.368         8.782
  6                            0.000        73.740        22.298         0.000
  7                            0.000        50.727        16.233         0.000
  8                            0.000        70.791        19.605         0.000
  9                           86.373        49.615        15.143         6.686
  10                          33.850        17.993         5.780         2.619
  12                           0.000         3.924         1.523         0.000
  13                           0.000        22.412         8.079         0.000
  14                           5.644        21.160         7.654         0.513
  15                          11.656         4.600         1.737         0.875
  16                           0.000        17.333         6.063         0.000
  17                          23.402        17.023         5.339         1.683
  18                           0.000        16.952         6.266         0.000
  19                           0.000        34.807        11.953         0.000
  20                           0.000        16.215         5.585         0.000
  21                           0.000        14.299         4.928         0.000
  22                           0.000        48.737        15.797         0.000
  24                          57.140        28.845         9.044         3.906
  25                          18.173         8.498         2.882         1.367
  26                         121.263        65.797        20.145         8.739
  27                           0.000        85.847        27.964         0.000
  28                           0.000        25.699         8.709         0.000
  29                          10.475        21.821         7.749         0.824
  30                           0.000        14.194         5.285         0.000
  31                           0.000         6.215         2.369         0.000
  33                          23.751        29.879         9.852         2.053
  42                          33.923        26.299         8.244         4.004
  51                           0.000        31.151        10.068         0.000
  54                          16.927        13.234         4.179         2.060
  55                           0.000         6.897         2.193         0.000
  ----------------------------------------------------------------------------
  System                     564.715       911.910       293.034        44.112
  
  
  ******************
  Node Depth Summary
  ******************
  
  ---------------------------------------------------------------------------------
                                 Average  Maximum  Maximum  Time of Max    Reported
                                   Depth    Depth      HGL   Occurrence   Max Depth
  Node                 Type         Feet     Feet     Feet  days hr:min        Feet
  ---------------------------------------------------------------------------------
  305                  JUNCTION     0.04     1.00    56.66   239  10:35        1.00
  306                  JUNCTION     0.04     0.87    52.39   239  11:05        0.86
  307                  JUNCTION     0.01     0.42    40.69   239  11:05        0.41
  308                  JUNCTION     0.10     1.97    31.72   239  11:05        1.96
  309                  JUNCTION     0.04     0.70    43.18   239  11:05        0.70
  310                  JUNCTION     0.03     0.38    68.36   239  11:05        0.38
  314                  JUNCTION     0.04     1.67    31.47   205  03:05        1.66
  316                  JUNCTION     0.02     0.39    50.82   239  11:05        0.38
  317                  JUNCTION     0.04     1.00    31.00   119  17:30        1.00
  318                  JUNCTION     0.03     0.68    44.78   239  11:05        0.67
  320                  JUNCTION     0.03     0.63    57.74   205  03:05        0.63
  321                  JUNCTION     0.06     1.09    12.17   205  03:05        1.08
  322                  JUNCTION     0.11     1.59    23.09   239  11:05        1.56
  324                  JUNCTION     0.04     0.55    54.28   239  11:05        0.55
  325                  JUNCTION     0.02     0.28    46.21   239  11:05        0.28
  326                  JUNCTION     0.02     0.41    49.44   239  11:05        0.41
  327                  JUNCTION     0.12     3.53     7.50   205  03:05        3.50
  328                  JUNCTION     0.12     2.27     4.75   205  03:05        2.27
  333                  JUNCTION     0.03     0.53    41.45   239  11:05        0.52
  342                  JUNCTION     0.06     1.00    50.42   119  17:45        1.00
  351                  JUNCTION     0.02     0.41    38.23   239  11:05        0.40
  355                  JUNCTION     0.04     0.45    57.64   205  03:05        0.44
  64                   JUNCTION     0.01     0.62    63.58   205  03:05        0.61
  47                   JUNCTION     0.13     2.89     3.74   239  11:05        2.88
  49                   JUNCTION     0.10     3.53     7.39   205  03:05        3.50
  51                   JUNCTION     0.05     0.86    10.28   239  11:05        0.85
  53                   JUNCTION     0.04     0.72    18.97   239  11:05        0.70
  54                   JUNCTION     0.04     0.72    20.27   239  11:05        0.71
  56                   JUNCTION     0.12     2.27     6.41   205  03:05        2.26
  57                   JUNCTION     0.08     1.57    13.55   205  03:05        1.56
  58                   JUNCTION     0.08     1.57    14.17   205  03:05        1.56
  60                   JUNCTION     0.04     0.52    36.03   205  03:05        0.52
  62                   JUNCTION     0.06     1.00    49.55   119  17:50        1.00
  63                   JUNCTION     0.04     0.58    41.54   205  03:05        0.58
  354                  JUNCTION     0.01     0.62    67.27   205  03:05        0.61
  66                   JUNCTION     0.11     1.60    25.33   239  11:05        1.56
  67                   JUNCTION     0.05     0.97    26.95   239  11:05        0.95
  68                   JUNCTION     0.03     0.58    39.46   239  11:05        0.58
  71                   JUNCTION     1.22     3.20    32.44     9  08:05        3.20
  82                   JUNCTION     0.06     1.17    34.94   239  10:50        1.17
  84                   JUNCTION     0.03     0.38    57.46   239  11:05        0.38
  86                   JUNCTION     0.06     1.18    36.00   239  11:05        1.17
  89                   JUNCTION     0.03     0.73     8.08   239  11:05        0.73
  90                   JUNCTION     0.02     0.41    43.37   239  11:05        0.40
  102n                 JUNCTION     0.03     0.68    40.22   239  11:05        0.66
  312b                 JUNCTION     1.20     1.20    30.44     0  00:05        1.20
  313b                 JUNCTION     0.04     0.65    29.86   205  03:25        0.64
  315                  OUTFALL      0.00     0.00     0.00     0  00:00        0.00
  319                  OUTFALL      0.03     0.73     0.73   239  11:05        0.73
  329                  OUTFALL      0.14     2.89     2.89   205  03:05        2.88
  330                  OUTFALL      0.00     0.00     0.00     0  00:00        0.00
  331                  OUTFALL      0.00     0.00     0.00     0  00:00        0.00
  312a                 STORAGE      0.33    16.98    46.22     0  00:05       16.60
  313a                 STORAGE      0.21     4.64    33.87   205  03:25        4.47
  
  
  *******************
  Node Inflow Summary
  *******************
  
  -------------------------------------------------------------------------------------------------
                                  Maximum  Maximum                  Lateral       Total        Flow
                                  Lateral    Total  Time of Max      Inflow      Inflow     Balance
                                   Inflow   Inflow   Occurrence      Volume      Volume       Error
  Node                 Type           CFS      CFS  days hr:min    10^6 gal    10^6 gal     Percent
  -------------------------------------------------------------------------------------------------
  305                  JUNCTION      8.49     8.49   239  11:05        10.4        10.4       0.000
  306                  JUNCTION      9.04     9.04   239  11:05        11.2        11.2       0.000
  307                  JUNCTION      8.28     8.28   239  11:05        8.33        8.33       0.000
  308                  JUNCTION      8.18    35.40   239  11:05          11        45.3       0.000
  309                  JUNCTION      6.96     9.88   239  11:05        8.28        12.8       0.000
  310                  JUNCTION      2.94     2.94   239  11:05        4.48        4.48       0.000
  314                  JUNCTION      7.74     9.53   205  03:05        4.85        9.21       0.000
  316                  JUNCTION      5.72     5.72   239  11:05        4.41        4.41       0.000
  317                  JUNCTION      2.37     2.37   239  11:05        4.38        4.38      -0.000
  318                  JUNCTION      6.38     6.38   239  11:05        4.35        4.35       0.000
  320                  JUNCTION      5.59     5.59   205  03:05        4.28        4.28       0.000
  321                  JUNCTION      4.37     9.47   205  03:05        4.04        8.32       0.000
  322                  JUNCTION     14.04    40.36   205  03:05        8.13          56       0.000
  324                  JUNCTION      3.73     3.73   239  11:05        5.78        5.78       0.000
  325                  JUNCTION      1.91     1.91   239  11:05        3.35        3.35       0.000
  326                  JUNCTION      8.58     8.58   239  11:05        10.2        10.2       0.000
  327                  JUNCTION     17.63    77.00   205  03:05        12.4        88.7       0.000
  328                  JUNCTION      7.04    83.06   205  03:05        5.37          94       0.000
  333                  JUNCTION      6.54     6.54   239  11:05        5.93        5.93       0.000
  342                  JUNCTION      5.06     5.06   205  03:05        5.47        5.47      -0.000
  351                  JUNCTION      6.53     6.53   239  11:05        6.02        6.02       0.000
  355                  JUNCTION      2.04     2.04   205  03:05        3.18        3.18       0.000
  64                   JUNCTION      0.00     2.85   205  03:05           0        1.56       0.000
  47                   JUNCTION      7.21    89.60   239  11:05        2.57        96.6       0.000
  49                   JUNCTION      0.00    76.98   205  03:05           0        88.7       0.000
  51                   JUNCTION      0.00    13.05   239  11:05           0        11.9       0.000
  53                   JUNCTION      0.00     6.52   239  11:05           0        6.02       0.000
  54                   JUNCTION      0.00     6.52   239  11:05           0        6.02       0.000
  56                   JUNCTION      0.00    40.18   205  03:05           0          56       0.000
  57                   JUNCTION      0.00    40.31   205  03:05           0          56       0.000
  58                   JUNCTION      0.00    40.35   205  03:05           0          56       0.000
  60                   JUNCTION      0.00     7.16   205  03:05           0          10       0.000
  62                   JUNCTION      0.00     7.16   205  03:05           0          10       0.000
  63                   JUNCTION      0.00     7.16   205  03:05           0          10       0.000
  354                  JUNCTION      2.85     2.85   205  03:05        1.56        1.56      -0.000
  66                   JUNCTION      0.00    19.57   239  11:05           0        37.9       0.000
  67                   JUNCTION      0.00    19.65   239  11:05           0        37.9       0.000
  68                   JUNCTION      0.00     8.58   239  11:05           0        10.2       0.000
  71                   JUNCTION      0.00     9.55   205  03:05           0          17       0.000
  82                   JUNCTION      0.00    18.19   239  11:05           0        23.1       0.000
  84                   JUNCTION      0.00     2.94   239  11:05           0        4.48       0.000
  86                   JUNCTION      0.00     8.33   239  11:05           0        10.4       0.000
  89                   JUNCTION     11.09    16.60   239  11:05        4.09         8.5       0.000
  90                   JUNCTION      0.00     5.70   239  11:05           0        4.41       0.000
  102n                 JUNCTION      0.00     6.32   239  11:05           0        4.35       0.000
  312b                 JUNCTION      0.00    12.63     0  00:05           0        62.5       0.000
  313b                 JUNCTION      0.00     6.27   205  03:25           0        23.3       0.000
  315                  OUTFALL       1.78     1.78   239  11:05         2.9         2.9       0.000
  319                  OUTFALL       0.01    16.59   239  11:05        2.37        10.9       0.000
  329                  OUTFALL       0.01    89.07   205  03:05        2.37        98.9       0.000
  330                  OUTFALL       5.42     5.42   239  11:05        4.03        4.03       0.000
  331                  OUTFALL       2.40     2.40   239  11:05        3.09        3.09       0.000
  312a                 STORAGE       1.47    47.05   239  11:05       0.459        62.5       0.026
  313a                 STORAGE       8.24    12.19   239  11:05        2.63        23.3       0.028
  
  
  *********************
  Node Flooding Summary
  *********************
  
  Flooding refers to all water that overflows a node, whether it ponds or not.
  --------------------------------------------------------------------------
                                                             Total   Maximum
                                 Maximum   Time of Max       Flood    Ponded
                        Hours       Rate    Occurrence      Volume    Volume
  Node                 Flooded       CFS   days hr:min    10^6 gal  1000 ftł
  --------------------------------------------------------------------------
  305                     0.58      0.44    239  11:05       0.005     0.000
  317                     5.42      0.88    239  11:05       0.053     0.000
  342                     5.33      2.75    205  03:05       0.155     0.000
  71                     57.42      8.90    205  03:05       2.167     0.000
  312b                 8783.92     12.60      0  00:05      54.737     0.000
  
  
  **********************
  Storage Volume Summary
  **********************
  
  ------------------------------------------------------------------------------------------------
                         Average    Avg   Evap  Exfil     Maximum    Max    Time of Max    Maximum
                          Volume   Pcnt   Pcnt   Pcnt      Volume   Pcnt     Occurrence    Outflow
  Storage Unit          1000 ftł   Full   Loss   Loss    1000 ftł   Full    days hr:min        CFS
  ------------------------------------------------------------------------------------------------
  312a                     1.516    0.1    0.0    0.0     676.907   59.3       0  00:05      12.63
  313a                     0.134    0.0    0.0    0.0      43.007    3.8     205  03:25       6.27
  
  
  ***********************
  Outfall Loading Summary
  ***********************
  
  -------------------------------------------------------------------------------------------------------------------
                         Flow       Avg       Max       Total         Total         Total         Total         Total
                         Freq      Flow      Flow      Volume          BOD5         NITRO          PHOS          LEAD
  Outfall Node           Pcnt       CFS       CFS    10^6 gal           lbs           lbs           lbs           lbs
  -------------------------------------------------------------------------------------------------------------------
  315                  100.00      0.01      1.78       2.904        11.656         4.600         1.737         0.875
  319                  100.00      0.05     16.59      10.861         0.000        52.176        18.226         0.000
  329                  100.00      0.42     89.07      98.946       215.100       456.033       146.956        21.320
  330                  100.00      0.02      5.42       4.029         0.000        14.194         5.285         0.000
  331                  100.00      0.01      2.40       3.093         0.000         6.215         2.369         0.000
  -------------------------------------------------------------------------------------------------------------------
  System               100.00      0.51    114.35     119.832       226.755       533.218       174.573        22.195
  
  
  ********************
  Link Flow Summary
  ********************
  
  -----------------------------------------------------------------------------
                                 Maximum  Time of Max   Maximum    Max/    Max/
                                  |Flow|   Occurrence   |Veloc|    Full    Full
  Link                 Type          CFS  days hr:min    ft/sec    Flow   Depth
  -----------------------------------------------------------------------------
  243                  CONDUIT     89.06   205  03:05      2.13    0.11    0.40
  244                  CONDUIT     83.01   205  03:05     10.62    0.31    0.38
  245                  CONDUIT     76.85   205  03:05      2.71    0.06    0.31
  246                  CONDUIT     76.98   205  03:05      4.85    0.69    0.64
  247                  CONDUIT     13.03   239  11:05      7.80    0.18    0.29
  248                  CONDUIT      6.54   239  11:05     11.82    0.26    0.35
  249                  CONDUIT      6.51   239  11:05     10.97    0.04    0.14
  250                  CONDUIT      6.52   239  11:05      6.41    0.28    0.36
  251                  CONDUIT      6.52   239  11:05     14.05    0.09    0.21
  252                  CONDUIT     40.10   205  03:05      1.42    0.06    0.31
  253                  CONDUIT     40.18   205  03:05      4.69    0.07    0.30
  254                  CONDUIT     40.31   205  03:05      2.57    0.17    0.45
  255                  CONDUIT     40.35   205  03:05     13.43    0.09    0.15
  256                  CONDUIT     19.52   239  11:05      7.27    0.97    0.80
  257                  CONDUIT     19.57   239  11:05      4.05    0.39    0.42
  258                  CONDUIT      8.58   239  11:05     11.31    0.18    0.29
  259                  CONDUIT      8.58   239  11:05     16.12    0.06    0.17
  260                  CONDUIT      6.29   239  11:05      7.38    0.22    0.32
  261                  CONDUIT      6.27   205  03:25      1.93    0.75    0.65
  262                  CONDUIT      0.73    98  16:35      0.14    1.12    1.00
  263                  CONDUIT      3.73   239  11:05      6.33    0.29    0.37
  264                  CONDUIT      0.03     0  00:05      0.03    1.00    1.00
  265                  CONDUIT      1.94   239  11:10      0.89    1.30    1.00
  266                  CONDUIT      9.52   205  03:05      2.60    0.53    0.52
  268                  CONDUIT      8.28   239  11:05      6.64    0.38    0.42
  269                  CONDUIT      1.90   239  11:05      8.56    0.07    0.18
  270                  CONDUIT     35.39   239  11:05      7.19    0.77    0.66
  271                  CONDUIT      9.03   239  11:05      8.55    0.63    0.58
  272                  CONDUIT     18.19   239  11:05      8.69    0.40    0.44
  273                  CONDUIT      9.88   239  11:05     10.10    0.26    0.35
  274                  CONDUIT      2.92   239  11:05      7.57    0.07    0.18
  275                  CONDUIT      2.94   239  11:05      7.05    0.08    0.19
  276                  CONDUIT      8.32   239  10:50      3.68    0.45    0.47
  277                  CONDUIT      8.33   239  11:05     11.64    1.03    1.00
  278                  CONDUIT     16.58   239  11:05     13.84    0.19    0.29
  279                  CONDUIT      5.68   239  11:05      6.87    0.38    0.41
  280                  CONDUIT      5.70   239  11:05     15.83    0.15    0.26
  281                  CONDUIT      7.15   205  03:05      9.61    0.06    0.16
  282                  CONDUIT      7.16   205  03:05     11.02    0.15    0.26
  283                  CONDUIT      7.16   205  03:05      9.38    0.19    0.29
  284                  CONDUIT      2.43   119  17:45      3.44    1.05    1.00
  285                  CONDUIT      2.02   205  03:05      4.57    0.19    0.30
  286                  CONDUIT      2.83   205  03:05      6.51    0.19    0.29
  287                  CONDUIT      2.85   205  03:05      5.62    0.70    0.62
  295                  CONDUIT      6.32   239  11:05      5.26    0.11    0.23
  297                  CONDUIT      5.56   205  03:05      6.58    0.21    0.31
  298                  CONDUIT      9.45   205  03:05      4.62    0.39    0.43
  O1                   ORIFICE     12.63     0  00:05                      0.00
  O2                   ORIFICE      6.27   205  03:25                      0.00
  
  
  *************************
  Conduit Surcharge Summary
  *************************
  
  ----------------------------------------------------------------------------
                                                           Hours        Hours 
                         --------- Hours Full --------   Above Full   Capacity
  Conduit                Both Ends  Upstream  Dnstream   Normal Flow   Limited
  ----------------------------------------------------------------------------
  262                        57.42     57.42     57.42     59.50        57.42
  264                      8783.92   8783.92   8783.92   8783.92      8783.92
  265                         5.42      5.42      5.42      5.00         5.42
  277                         0.58      0.58      0.58      0.58         0.58
  284                         5.33      5.33      5.33      0.50         5.33
  
  
  ***************************
  Link Pollutant Load Summary
  ***************************
  
  ----------------------------------------------------------------------------
                                BOD5         NITRO          PHOS          LEAD
  Link                           lbs           lbs           lbs           lbs
  ----------------------------------------------------------------------------
  243                        215.100       456.033       146.956        21.320
  244                        214.140       437.899       140.993        21.000
  245                        224.334       415.707       133.405        21.484
  246                        234.095       418.628       134.559        21.954
  247                         23.403        60.021        19.864         2.083
  248                         23.650        29.865         9.926         2.069
  249                          0.000        30.710        10.069         0.000
  250                          0.000        30.977        10.130         0.000
  251                          0.000        31.134        10.135         0.000
  252                        220.483       244.561        76.689        20.300
  253                        225.937       247.133        77.783        20.473
  254                        230.379       249.326        78.805        20.608
  255                        233.710       251.048        79.410        20.645
  256                        192.805       159.291        49.999        14.794
  257                        192.713       160.274        50.282        14.654
  258                        118.545        65.609        20.345         8.829
  259                        120.815        65.831        20.321         8.815
  260                          0.000        16.973         6.358         0.000
  261                         72.369        78.258        23.765         5.628
  262                         11.540        27.407         7.144         1.576
  263                         57.106        28.825         9.108         3.937
  264                          1.641         7.093         1.211         0.237
  265                         22.258        16.753         5.168         1.644
  266                         28.430        37.934        12.915         2.200
  268                          0.000        50.739        16.370         0.000
  269                         17.994         8.486         2.904         1.378
  270                        225.025       277.162        83.488        18.133
  271                          0.000        73.758        22.467         0.000
  272                        231.837       133.685        41.464        18.190
  273                        118.153        67.382        21.049         9.366
  274                         32.996        17.887         5.814         2.638
  275                         33.707        17.988         5.823         2.640
  276                        119.886        67.020        20.529         8.864
  277                        121.782        67.222        20.534         8.854
  278                          0.000        52.176        18.226         0.000
  279                          0.000        17.347         6.146         0.000
  280                          0.000        17.349         6.123         0.000
  281                         42.923        44.294        13.970         5.818
  282                         43.775        44.712        14.109         5.856
  283                         44.367        45.004        14.182         5.867
  284                         27.918        25.072         7.808         3.780
  285                          0.000         6.886         2.193         0.000
  286                         16.737        13.209         4.199         2.074
  287                         16.912        13.237         4.202         2.072
  295                          0.000        16.979         6.327         0.000
  297                          0.000        16.228         5.620         0.000
  298                          0.000        30.529        10.605         0.000
  O1                         244.011       337.229        97.372        18.735
  O2                          70.566        78.399        23.816         5.544
  

  Analysis begun on:  Wed Jun 24 17:35:03 2026
  Analysis ended on:  Wed Jun 24 17:35:09 2026
  Total elapsed time: 00:00:06