
  EPA STORM WATER MANAGEMENT MODEL - VERSION 5.2 (Build 5.2.4)
  ------------------------------------------------------------

  Scenario Run :  BASE 
  WARNING 04: minimum elevation drop used for Conduit CDT-310
  WARNING 04: minimum elevation drop used for Conduit CDT-310-1
  WARNING 04: minimum elevation drop used for Conduit CDT-31A1D
  WARNING 04: minimum elevation drop used for Conduit CDT-31A2D
  WARNING 04: minimum elevation drop used for Conduit CDT-31A3D
  WARNING 04: minimum elevation drop used for Conduit CDT-31A4D
  WARNING 04: minimum elevation drop used for Conduit CDT-31A5D
  WARNING 04: minimum elevation drop used for Conduit CDT-31F2
  WARNING 04: minimum elevation drop used for Conduit CDT-31F21D
  WARNING 04: minimum elevation drop used for Conduit CDT-31F22
  WARNING 04: minimum elevation drop used for Conduit CDT-331AD
  WARNING 04: minimum elevation drop used for Conduit CDT-35
  WARNING 04: minimum elevation drop used for Conduit SGP37002000
  WARNING 04: minimum elevation drop used for Conduit SPI3010031A
  WARNING 04: minimum elevation drop used for Conduit SPI30100600
  WARNING 04: minimum elevation drop used for Conduit SPI30101300
  WARNING 04: minimum elevation drop used for Conduit SPI30101500
  WARNING 04: minimum elevation drop used for Conduit SPI30101600
  WARNING 04: minimum elevation drop used for Conduit SPI30101700
  WARNING 04: minimum elevation drop used for Conduit SPI30101800
  WARNING 04: minimum elevation drop used for Conduit SPI30101900
  WARNING 04: minimum elevation drop used for Conduit SPI30102000
  WARNING 04: minimum elevation drop used for Conduit SPI30102600
  WARNING 04: minimum elevation drop used for Conduit SPI30102700
  WARNING 04: minimum elevation drop used for Conduit SPI30102800
  WARNING 04: minimum elevation drop used for Conduit SPI30102900
  WARNING 04: minimum elevation drop used for Conduit SPI301031A1
  WARNING 04: minimum elevation drop used for Conduit SPI301031A4
  WARNING 04: minimum elevation drop used for Conduit SPI30109800
  WARNING 04: minimum elevation drop used for Conduit SPI30131F22
  WARNING 04: minimum elevation drop used for Conduit SPI30191200
  WARNING 04: minimum elevation drop used for Conduit SPI30191300
  WARNING 04: minimum elevation drop used for Conduit SPI30191600
  WARNING 04: minimum elevation drop used for Conduit SPI30192100
  WARNING 04: minimum elevation drop used for Conduit SPI30192200
  WARNING 04: minimum elevation drop used for Conduit SPI30192300
  WARNING 04: minimum elevation drop used for Conduit SPI30192500
  WARNING 04: minimum elevation drop used for Conduit SPI30192600
  WARNING 04: minimum elevation drop used for Conduit SPI30192800
  WARNING 04: minimum elevation drop used for Conduit SPI30193100
  WARNING 04: minimum elevation drop used for Conduit SPI30193200
  WARNING 04: minimum elevation drop used for Conduit SPI30193300
  WARNING 04: minimum elevation drop used for Conduit SPI301E5001
  WARNING 04: minimum elevation drop used for Conduit SPI301E5004
  WARNING 04: minimum elevation drop used for Conduit SPI301E5005
  WARNING 04: minimum elevation drop used for Conduit SPI301E5006
  WARNING 04: minimum elevation drop used for Conduit SPI301E5007
  WARNING 04: minimum elevation drop used for Conduit SPI301E5008
  WARNING 04: minimum elevation drop used for Conduit SPI301E5009
  WARNING 04: minimum elevation drop used for Conduit SPI301E5010
  WARNING 04: minimum elevation drop used for Conduit SPI301E5011
  WARNING 04: minimum elevation drop used for Conduit SPI301E5012
  WARNING 04: minimum elevation drop used for Conduit SPI301E5013
  WARNING 04: minimum elevation drop used for Conduit SPI301E5014
  WARNING 04: minimum elevation drop used for Conduit SPI301E5015
  WARNING 04: minimum elevation drop used for Conduit SPI301E5016
  WARNING 04: minimum elevation drop used for Conduit SPI301E5017
  WARNING 04: minimum elevation drop used for Conduit SPI301E5018
  WARNING 04: minimum elevation drop used for Conduit SPI301E5019
  WARNING 04: minimum elevation drop used for Conduit SPI301E5021
  
  ****************
  Analysis Options
  ****************
  Flow Units ............... GPM
  Process Models:
    Rainfall/Runoff ........ NO
    RDII ................... NO
    Snowmelt ............... NO
    Groundwater ............ NO
    Flow Routing ........... YES
    Ponding Allowed ........ NO
    Water Quality .......... NO
  Flow Routing Method ...... DYNWAVE
  Surcharge Method ......... EXTRAN
  Starting Date ............ 01/01/2002 00:00:00
  Ending Date .............. 01/02/2002 06:00:00
  Antecedent Dry Days ...... 5.0
  Report Time Step ......... 00:01:00
  Routing Time Step ........ 1.00 sec
  Variable Time Step ....... YES
  Maximum Trials ........... 8
  Number of Threads ........ 1
  Head Tolerance ........... 0.000100 ft
  
  
  ERROR 333: incompatible data found in hot start interface file.

  Analysis begun on:  Wed Jun 24 17:36:13 2026
  Analysis ended on:  Wed Jun 24 17:36:13 2026
  Total elapsed time: < 1 sec