
  EPA STORM WATER MANAGEMENT MODEL - VERSION 5.2 (Build 5.2.4)
  ------------------------------------------------------------

  WARNING 03: negative offset ignored for Link SWALE
  WARNING 03: negative offset ignored for Link SWALE
  WARNING 02: maximum depth increased for Node 140
  WARNING 02: maximum depth increased for Node 173
  WARNING 02: maximum depth increased for Node 25
  WARNING 02: maximum depth increased for Node 255
  WARNING 02: maximum depth increased for Node 26
  WARNING 02: maximum depth increased for Node 261
  WARNING 02: maximum depth increased for Node 276
  WARNING 02: maximum depth increased for Node 31
  WARNING 02: maximum depth increased for Node 74
  WARNING 02: maximum depth increased for Node 77
  WARNING 02: maximum depth increased for Node JCT-10
  WARNING 02: maximum depth increased for Node JCT-120
  WARNING 02: maximum depth increased for Node JCT-160
  WARNING 02: maximum depth increased for Node JCT-162
  WARNING 02: maximum depth increased for Node JCT-164
  WARNING 02: maximum depth increased for Node JCT-166
  WARNING 02: maximum depth increased for Node JCT-168
  WARNING 02: maximum depth increased for Node JCT-170
  
  ****************
  Analysis Options
  ****************
  Flow Units ............... CFS
  Process Models:
    Rainfall/Runoff ........ YES
    RDII ................... YES
    Snowmelt ............... NO
    Groundwater ............ NO
    Flow Routing ........... YES
    Ponding Allowed ........ NO
    Water Quality .......... NO
  Infiltration Method ...... GREEN_AMPT
  Flow Routing Method ...... DYNWAVE
  Surcharge Method ......... EXTRAN
  Starting Date ............ 01/01/1997 00:00:00
  Ending Date .............. 01/02/1997 02:07:00
  Antecedent Dry Days ...... 5.0
  Report Time Step ......... 00:05:00
  Wet Time Step ............ 00:00:30
  Dry Time Step ............ 00:01:00
  Routing Time Step ........ 30.00 sec
  Variable Time Step ....... YES
  Maximum Trials ........... 8
  Number of Threads ........ 1
  Head Tolerance ........... 0.000100 ft
  
  
  **********************           Volume        Volume
  Rainfall Dependent I/I        acre-feet      10^6 gal
  **********************        ---------     ---------
  Sewershed Rainfall ......       173.471        56.528
  RDII Produced ...........         8.943         2.914
  RDII Ratio ..............         0.052
  
  
  **************************        Volume         Depth
  Runoff Quantity Continuity     acre-feet        inches
  **************************     ---------       -------
  Initial LID Storage ......         9.457         0.385
  Initial Snow Cover .......         0.000         0.000
  Total Precipitation ......       314.224        12.782
  Evaporation Loss .........         1.038         0.042
  Infiltration Loss ........       120.864         4.916
  Surface Runoff ...........       177.695         7.228
  Snow Removed .............         0.000         0.000
  Final Snow Cover .........         0.000         0.000
  Final Storage ............        24.144         0.982
  Continuity Error (%) .....        -0.019
  
  
  **************************        Volume        Volume
  Flow Routing Continuity        acre-feet      10^6 gal
  **************************     ---------     ---------
  Dry Weather Inflow .......         3.420         1.114
  Wet Weather Inflow .......       176.997        57.677
  Groundwater Inflow .......         0.000         0.000
  RDII Inflow ..............         8.946         2.915
  External Inflow ..........         3.811         1.242
  External Outflow .........        82.666        26.938
  Flooding Loss ............        30.826        10.045
  Evaporation Loss .........         0.318         0.104
  Exfiltration Loss ........        44.162        14.391
  Initial Stored Volume ....         0.003         0.001
  Final Stored Volume ......        31.223        10.174
  Continuity Error (%) .....         2.061
  
  
  *************************
  Highest Continuity Errors
  *************************
  Node 166 (70.27%)
  Node 26 (14.33%)
  Node 209 (13.90%)
  Node 351 (10.90%)
  Node 269 (9.83%)
  
  
  ***************************
  Time-Step Critical Elements
  ***************************
  Link 4195 (39.26%)
  Link 3289 (21.24%)
  Link 77OF (8.68%)
  
  
  ********************************
  Highest Flow Instability Indexes
  ********************************
  Link 257OF (93)
  Link 209OFA (90)
  Link 269OF (86)
  Link CDT-137 (65)
  Link CDT-141 (54)
  
  
  *********************************
  Most Frequent Nonconverging Nodes
  *********************************
  Node DUMMYOUTFALL (98.65%)
  Node OFALL-10 (98.65%)
  Node OFALL-12 (98.65%)
  Node VIADUCT1 (98.65%)
  Node VIADUCT2 (98.65%)
  
  
  *************************
  Routing Time Step Summary
  *************************
  Minimum Time Step           :     0.62 sec
  Average Time Step           :    18.33 sec
  Maximum Time Step           :    30.00 sec
  % of Time in Steady State   :     0.00
  Average Iterations per Step :     7.96
  % of Steps Not Converging   :    98.65
  Time Step Frequencies       :
     30.000 -  3.817 sec      :    98.73 %
      3.817 -  0.486 sec      :     1.27 %
      0.486 -  0.062 sec      :     0.00 %
      0.062 -  0.008 sec      :     0.00 %
      0.008 -  0.001 sec      :     0.00 %
  
  
  ***************************
  Subcatchment Runoff Summary
  ***************************
  
  ------------------------------------------------------------------------------------------------------------------------------
                            Total      Total      Total      Total     Imperv       Perv      Total       Total     Peak  Runoff
                           Precip      Runon       Evap      Infil     Runoff     Runoff     Runoff      Runoff   Runoff   Coeff
  Subcatchment                 in         in         in         in         in         in         in    10^6 gal      CFS
  ------------------------------------------------------------------------------------------------------------------------------
  C10                       12.78       0.00       0.07       3.87       7.43       5.13       8.16        2.14   303.15   0.639
  C13                       12.78       0.00       0.06       3.81       7.35       5.32       8.23        0.40    65.84   0.644
  C15                       12.78       0.00       0.05       4.75       5.12       6.12       7.30        1.96   268.74   0.571
  C20                       12.78       0.00       0.04       5.12       3.63       7.06       6.95        1.44   199.10   0.544
  C25                       12.78       0.00       0.04       5.55       2.81       7.22       6.52        2.63   300.07   0.510
  C30                       12.78       0.00       0.03       5.50       2.15       7.96       6.57        1.20   154.32   0.514
  C33                       12.78       0.00       0.04       4.21       3.11       8.11       7.85        1.52   216.83   0.615
  C35                       12.78       0.00       0.04       5.39       3.56       6.23       6.85        2.50   306.62   0.536
  C45                       12.78       0.00       0.04       5.42       3.11       6.38       6.64        1.93   221.71   0.520
  C50                       12.78       0.00       0.05       4.73       4.09       6.81       7.63        3.95   456.06   0.597
  C55                       12.78       0.00       0.04       4.52       4.27       6.78       7.74        1.36   195.19   0.605
  C57                       12.78       0.00       0.05       4.41       4.27       6.66       7.65        2.66   349.64   0.598
  C60                       12.78       0.00       0.05       4.05       4.80       6.63       8.00        3.33   424.01   0.626
  C65                       12.78       0.00       0.05       4.57       5.42       5.52       7.66        1.30   210.48   0.600
  D10                       12.78       0.00       0.06       4.08       7.02       4.35       7.96        2.12   301.49   0.623
  D15                       12.78       0.00       0.05       4.22       4.98       6.64       8.13        1.32   181.40   0.636
  D20                       12.78       0.00       0.05       4.36       4.80       6.48       7.90        1.48   218.88   0.618
  D21                       12.78       0.00       0.03       5.08       1.87       8.12       6.99        2.84   321.35   0.547
  D22                       12.78       0.00       0.04       4.96       2.22       7.94       7.12        2.70   272.98   0.557
  D25                       12.78       0.00       0.03       5.60       2.13       7.37       6.65        1.03   127.40   0.520
  D30                       12.78       0.00       0.04       6.38       2.04       6.09       5.69        2.22   165.93   0.445
  D32                       12.78       0.00       0.05       4.37       4.62       6.79       7.99        0.72    93.20   0.625
  D35                       12.78       0.00       0.03       5.28       2.13       7.85       6.99        1.55   166.99   0.547
  D40                       12.78       0.00       0.04       4.95       2.40       7.78       7.13        1.97   222.82   0.557
  D45                       12.78       0.00       0.04       4.68       3.02       7.52       7.38        3.21   349.90   0.578
  D50                       12.78       0.00       0.04       5.21       3.47       6.58       7.03        1.60   219.45   0.550
  D55                       12.78       0.00       0.04       5.81       2.31       6.63       6.26        1.19   115.32   0.490
  D60                       12.78       0.00       0.03       5.24       2.22       7.97       7.14        2.45   249.89   0.558
  D65                       12.78       0.00       0.03       5.09       2.13       8.13       7.18        1.69   210.69   0.562
  D70                       12.78       0.00       0.05       4.44       3.91       6.98       7.62        1.51   200.69   0.596
  

  ***********************
  LID Performance Summary
  ***********************

  --------------------------------------------------------------------------------------------------------------------
                                         Total      Evap     Infil   Surface    Drain    Initial     Final  Continuity
                                        Inflow      Loss      Loss   Outflow   Outflow   Storage   Storage       Error
  Subcatchment      LID Control             in        in        in        in        in        in        in           %
  --------------------------------------------------------------------------------------------------------------------
  C10               RG                   25.34      0.11      5.02     19.95      0.00      0.30      0.57       -0.00
  C10               PAVEMENT             25.34      0.00     25.34      0.00      0.00      0.00      0.00       -0.00
  C10               GREENROOF            25.34      0.09      0.00      0.00     21.80      2.36      5.82       -0.02
  C10               VEGSWALE             25.34      0.01      3.45     21.89      0.00      0.00      0.00       -0.02
  C10               RAINB                25.34      0.00      0.00      0.00     19.34      0.00      6.00        0.00
  C10               BIOCELL              25.34      0.09     13.95      7.47      0.00      5.91      9.76       -0.04
  C10               TRENCH               25.34      0.00     18.89      0.00      6.45      0.00      0.00        0.00
  C13               RG                   25.44      0.11      4.69     20.38      0.00      0.30      0.57       -0.00
  C13               PAVEMENT             25.44      0.00     25.44      0.00      0.00      0.00      0.00       -0.00
  C13               GREENROOF            25.44      0.09      0.00      0.00     21.92      2.36      5.82       -0.06
  C13               VEGSWALE             25.44      0.01      3.11     22.33      0.00      0.00      0.00       -0.02
  C13               RAINB                25.44      0.00      0.00      0.00     19.44      0.00      6.00       -0.00
  C13               BIOCELL              25.44      0.09     13.23      8.28      0.00      5.91      9.76       -0.02
  C13               TRENCH               25.44      0.00     18.65      0.00      6.79      0.00      0.00        0.00
  C15               RG                   24.02      0.11      4.50     19.15      0.00      0.30      0.57       -0.00
  C15               PAVEMENT             24.02      0.00     24.02      0.00      0.00      0.00      0.00       -0.00
  C15               GREENROOF            24.02      0.09      0.00      0.00     20.48      2.36      5.81       -0.03
  C15               VEGSWALE             24.02      0.01      2.93     21.08      0.00      0.00      0.00       -0.02
  C15               RAINB                24.02      0.00      0.00      0.00     18.02      0.00      6.00        0.00
  C15               BIOCELL              24.02      0.09     13.46      6.63      0.00      5.91      9.75       -0.04
  C15               TRENCH               24.02      0.00     18.15      0.00      5.87      0.00      0.00       -0.00
  C20               RG                   23.47      0.11      4.26     18.84      0.00      0.30      0.57       -0.00
  C20               PAVEMENT             23.47      0.00     23.47      0.00      0.00      0.00      0.00       -0.00
  C20               GREENROOF            23.47      0.10      0.00      0.00     19.94      2.36      5.81       -0.04
  C20               VEGSWALE             23.47      0.01      2.68     20.80      0.00      0.00      0.00       -0.02
  C20               RAINB                23.47      0.00      0.00      0.00     17.47      0.00      6.00       -0.00
  C20               BIOCELL              23.47      0.10     13.07      6.46      0.00      5.91      9.75       -0.02
  C20               TRENCH               23.47      0.00     17.78      0.00      5.69      0.00      0.00        0.00
  C25               RG                   22.81      0.11      4.50     17.93      0.00      0.30      0.57       -0.00
  C25               PAVEMENT             22.81      0.00     22.80      0.00      0.00      0.00      0.00       -0.00
  C25               GREENROOF            22.81      0.10      0.00      0.00     19.28      2.36      5.81       -0.08
  C25               VEGSWALE             22.81      0.01      3.00     19.79      0.00      0.00      0.00        0.05
  C25               RAINB                22.81      0.00      0.00      0.00     16.81      0.00      6.00        0.00
  C25               BIOCELL              22.81      0.10     13.92      4.95      0.00      5.91      9.74       -0.02
  C25               TRENCH               22.81      0.00     18.03      0.00      4.78      0.00      0.00        0.00
  C30               RG                   22.89      0.11      4.23     18.29      0.00      0.30      0.57       -0.00
  C30               PAVEMENT             22.89      0.00     22.89      0.00      0.00      0.00      0.00       -0.00
  C30               GREENROOF            22.89      0.10      0.00      0.00     19.36      2.36      5.81       -0.04
  C30               VEGSWALE             22.89      0.01      2.67     20.22      0.00      0.00      0.00       -0.02
  C30               RAINB                22.89      0.00      0.00      0.00     16.89      0.00      6.00       -0.00
  C30               BIOCELL              22.89      0.10     13.20      5.76      0.00      5.91      9.74       -0.04
  C30               TRENCH               22.89      0.00     17.72      0.00      5.17      0.00      0.00        0.00
  C33               RG                   24.00      0.11      4.23     19.40      0.00      0.30      0.57       -0.00
  C33               GREENROOF            24.00      0.10      0.00      0.00     20.47      2.36      5.81       -0.04
  C33               VEGSWALE             24.00      0.01      2.64     21.36      0.00      0.00      0.00       -0.02
  C33               RAINB                24.00      0.00      0.00      0.00     18.00      0.00      6.00        0.00
  C33               BIOCELL              24.00      0.10     13.08      7.00      0.00      5.91      9.74       -0.03
  C33               TRENCH               24.00      0.00     17.92      0.00      6.09      0.00      0.00        0.00
  C35               RG                   22.57      0.11      4.43     17.76      0.00      0.30      0.57       -0.00
  C35               VEGSWALE             22.57      0.01      2.85     19.70      0.00      0.00      0.00        0.04
  C35               RAINB                22.57      0.00      0.00      0.00     16.57      0.00      6.00        0.00
  C35               BIOCELL              22.57      0.10     13.44      5.19      0.00      5.91      9.75       -0.05
  C35               TRENCH               22.57      0.00     17.65      0.00      4.91      0.00      0.00        0.00
  C35               PAVEMENT             22.57      0.00     22.56      0.00      0.00      0.00      0.00       -0.00
  C45               RG                   22.27      0.11      4.39     17.51      0.00      0.30      0.57       -0.00
  C45               RAINB                22.27      0.00      0.00      0.00     16.27      0.00      6.00        0.00
  C45               BIOCELL              22.27      0.10     13.62      4.72      0.00      5.91      9.75       -0.04
  C45               TRENCH               22.27      0.00     17.76      0.00      4.52      0.00      0.00        0.00
  C45               PAVEMENT             22.27      0.00     22.27      0.00      0.00      0.00      0.00       -0.00
  C45               GREENROOF            22.27      0.10      0.00      0.00     18.74      2.36      5.81       -0.06
  C50               RG                   23.68      0.11      4.63     18.67      0.00      0.30      0.57       -0.00
  C50               BIOCELL              23.68      0.10     14.43      5.32      0.00      5.91      9.75       -0.04
  C50               TRENCH               23.68      0.00     18.54      0.00      5.14      0.00      0.00        0.00
  C50               PAVEMENT             23.68      0.00     23.68      0.00      0.00      0.00      0.00       -0.00
  C50               GREENROOF            23.68      0.10      0.00      0.00     20.15      2.36      5.81       -0.08
  C50               VEGSWALE             23.68      0.01      3.17     20.40      0.00      0.00      0.00        0.42
  C55               RG                   23.83      0.11      4.22     19.24      0.00      0.30      0.57       -0.00
  C55               TRENCH               23.83      0.00     17.93      0.00      5.91      0.00      0.00        0.00
  C55               PAVEMENT             23.83      0.00     23.83      0.00      0.00      0.00      0.00       -0.00
  C55               GREENROOF            23.83      0.10      0.00      0.00     20.30      2.36      5.81       -0.05
  C55               VEGSWALE             23.83      0.01      2.66     21.18      0.00      0.00      0.00       -0.02
  C55               RAINB                23.83      0.00      0.00      0.00     17.83      0.00      6.00        0.00
  C57               RG                   23.71      0.11      4.44     18.89      0.00      0.30      0.57       -0.00
  C57               PAVEMENT             23.71      0.00     23.70      0.00      0.00      0.00      0.00       -0.00
  C57               GREENROOF            23.71      0.10      0.00      0.00     20.18      2.36      5.81       -0.07
  C57               VEGSWALE             23.71      0.01      2.90     20.79      0.00      0.00      0.00        0.03
  C57               RAINB                23.71      0.00      0.00      0.00     17.71      0.00      6.00        0.00
  C57               BIOCELL              23.71      0.10     13.62      6.15      0.00      5.91      9.75       -0.02
  C60               RG                   24.21      0.11      4.57     19.27      0.00      0.30      0.57       -0.00
  C60               GREENROOF            24.21      0.10      0.00      0.00     20.67      2.36      5.81       -0.03
  C60               VEGSWALE             24.21      0.01      3.06     21.12      0.00      0.00      0.00        0.08
  C60               RAINB                24.21      0.00      0.00      0.00     18.21      0.00      6.00       -0.00
  C60               BIOCELL              24.21      0.10     14.05      6.23      0.00      5.91      9.75       -0.03
  C60               TRENCH               24.21      0.00     18.48      0.00      5.73      0.00      0.00       -0.00
  C65               RG                   23.73      0.11      4.25     19.11      0.00      0.30      0.57       -0.00
  C65               VEGSWALE             23.73      0.01      2.49     21.24      0.00      0.00      0.00       -0.02
  C65               RAINB                23.73      0.00      0.00      0.00     17.73      0.00      6.00        0.00
  C65               BIOCELL              23.73      0.10     12.36      7.45      0.00      5.91      9.75       -0.04
  C65               TRENCH               23.73      0.00     17.42      0.00      6.31      0.00      0.00        0.00
  C65               PAVEMENT             23.73      0.00     23.73      0.00      0.00      0.00      0.00       -0.00
  D10               RG                   24.16      0.11      4.71     19.07      0.00      0.30      0.57       -0.00
  D10               RAINB                24.16      0.00      0.00      0.00     18.16      0.00      6.00        0.00
  D10               BIOCELL              24.16      0.09     13.47      6.75      0.00      5.91      9.75       -0.01
  D10               TRENCH               24.16      0.00     18.23      0.00      5.92      0.00      0.00       -0.00
  D10               PAVEMENT             24.16      0.00     24.16      0.00      0.00      0.00      0.00       -0.00
  D10               GREENROOF            24.16      0.09      0.00      0.00     20.63      2.36      5.82       -0.08
  D15               RG                   24.40      0.11      4.22     19.81      0.00      0.30      0.57       -0.00
  D15               BIOCELL              24.40      0.10     13.36      7.10      0.00      5.91      9.75       -0.00
  D15               TRENCH               24.40      0.00     18.26      0.00      6.14      0.00      0.00        0.00
  D15               PAVEMENT             24.40      0.00     24.40      0.00      0.00      0.00      0.00       -0.00
  D15               GREENROOF            24.40      0.10      0.00      0.00     20.87      2.36      5.81       -0.06
  D15               VEGSWALE             24.40      0.01      2.69     21.71      0.00      0.00      0.00       -0.02
  D20               RG                   24.06      0.11      4.28     19.41      0.00      0.30      0.57       -0.00
  D20               TRENCH               24.06      0.00     17.99      0.00      6.07      0.00      0.00        0.00
  D20               PAVEMENT             24.06      0.00     24.06      0.00      0.00      0.00      0.00       -0.00
  D20               GREENROOF            24.06      0.10      0.00      0.00     20.52      2.36      5.81       -0.02
  D20               VEGSWALE             24.06      0.01      2.71     21.35      0.00      0.00      0.00       -0.02
  D20               RAINB                24.06      0.00      0.00      0.00     18.06      0.00      6.00        0.00
  D21               RG                   22.77      0.11      4.51     17.89      0.00      0.30      0.57       -0.00
  D21               PAVEMENT             22.77      0.00     22.77      0.00      0.00      0.00      0.00       -0.00
  D21               GREENROOF            22.77      0.10      0.00      0.00     19.22      2.36      5.81       -0.01
  D21               VEGSWALE             22.77      0.01      3.01     19.71      0.00      0.00      0.00        0.18
  D21               RAINB                22.77      0.00      0.00      0.00     16.77      0.00      6.00        0.00
  D21               BIOCELL              22.77      0.10     13.99      4.84      0.00      5.91      9.74       -0.00
  D22               RG                   22.95      0.11      4.51     18.06      0.00      0.30      0.57       -0.00
  D22               GREENROOF            22.95      0.10      0.00      0.00     19.42      2.36      5.81       -0.07
  D22               VEGSWALE             22.95      0.01      3.10     19.84      0.00      0.00      0.00        0.02
  D22               RAINB                22.95      0.00      0.00      0.00     16.95      0.00      6.00        0.00
  D22               BIOCELL              22.95      0.10     14.47      4.55      0.00      5.91      9.74       -0.04
  D22               TRENCH               22.95      0.00     18.46      0.00      4.49      0.00      0.00        0.00
  D25               RG                   22.29      0.11      4.18     17.73      0.00      0.30      0.57       -0.00
  D25               VEGSWALE             22.29      0.01      2.58     19.71      0.00      0.00      0.00       -0.02
  D25               RAINB                22.29      0.00      0.00      0.00     16.29      0.00      6.00       -0.00
  D25               BIOCELL              22.29      0.10     13.04      5.32      0.00      5.91      9.74       -0.04
  D25               TRENCH               22.29      0.00     17.46      0.00      4.83      0.00      0.00        0.00
  D25               PAVEMENT             22.29      0.00     22.29      0.00      0.00      0.00      0.00       -0.00
  D30               RG                   20.91      0.11      4.71     15.83      0.00      0.30      0.57       -0.00
  D30               RAINB                20.91      0.00      0.00      0.00     14.91      0.00      6.00       -0.00
  D30               BIOCELL              20.91      0.10     14.69      2.28      0.00      5.91      9.75       -0.00
  D30               TRENCH               20.91      0.00     18.04      0.00      2.87      0.00      0.00       -0.00
  D30               PAVEMENT             20.91      0.00     20.91      0.00      0.00      0.00      0.00       -0.00
  D30               GREENROOF            20.91      0.10      0.00      0.00     17.37      2.36      5.81       -0.02
  D32               RG                   24.20      0.11      4.15     19.68      0.00      0.30      0.57       -0.00
  D32               BIOCELL              24.20      0.10     13.47      6.80      0.00      5.91      9.75       -0.04
  D32               TRENCH               24.20      0.00     18.35      0.00      5.85      0.00      0.00       -0.00
  D32               PAVEMENT             24.20      0.00     24.20      0.00      0.00      0.00      0.00       -0.00
  D32               GREENROOF            24.20      0.10      0.00      0.00     20.67      2.36      5.81       -0.08
  D32               VEGSWALE             24.20      0.01      2.65     21.54      0.00      0.00      0.00       -0.01
  D35               RG                   22.77      0.11      4.33     18.06      0.00      0.30      0.57       -0.00
  D35               TRENCH               22.77      0.00     18.20      0.00      4.57      0.00      0.00        0.00
  D35               PAVEMENT             22.77      0.00     22.77      0.00      0.00      0.00      0.00       -0.00
  D35               GREENROOF            22.77      0.10      0.00      0.00     19.24      2.36      5.81       -0.06
  D35               VEGSWALE             22.77      0.01      2.89     19.88      0.00      0.00      0.00       -0.02
  D35               RAINB                22.77      0.00      0.00      0.00     16.77      0.00      6.00       -0.00
  D40               RG                   22.96      0.11      4.38     18.21      0.00      0.30      0.57       -0.00
  D40               PAVEMENT             22.96      0.00     22.96      0.00      0.00      0.00      0.00       -0.00
  D40               GREENROOF            22.96      0.10      0.00      0.00     19.43      2.36      5.81       -0.06
  D40               VEGSWALE             22.96      0.01      2.90     20.06      0.00      0.00      0.00       -0.02
  D40               RAINB                22.96      0.00      0.00      0.00     16.96      0.00      6.00       -0.00
  D40               BIOCELL              22.96      0.10     13.89      5.14      0.00      5.91      9.74       -0.02
  D45               RG                   23.33      0.11      4.55     18.40      0.00      0.30      0.57       -0.00
  D45               GREENROOF            23.33      0.10      0.00      0.00     19.79      2.36      5.81       -0.05
  D45               VEGSWALE             23.33      0.01      3.10     20.15      0.00      0.00      0.00        0.27
  D45               RAINB                23.33      0.00      0.00      0.00     17.33      0.00      6.00       -0.00
  D45               BIOCELL              23.33      0.10     14.34      5.04      0.00      5.91      9.75       -0.00
  D45               TRENCH               23.33      0.00     18.45      0.00      4.88      0.00      0.00        0.00
  D50               RG                   22.83      0.11      4.25     18.21      0.00      0.30      0.57       -0.00
  D50               VEGSWALE             22.83      0.01      2.57     20.26      0.00      0.00      0.00       -0.02
  D50               RAINB                22.83      0.00      0.00      0.00     16.83      0.00      6.00       -0.00
  D50               BIOCELL              22.83      0.10     12.82      6.07      0.00      5.91      9.74       -0.02
  D50               TRENCH               22.83      0.00     17.42      0.00      5.41      0.00      0.00        0.00
  D50               PAVEMENT             22.83      0.00     22.83      0.00      0.00      0.00      0.00       -0.00
  D55               RG                   21.72      0.11      4.33     17.01      0.00      0.30      0.57       -0.00
  D55               RAINB                21.72      0.00      0.00      0.00     15.72      0.00      6.00        0.00
  D55               BIOCELL              21.72      0.10     13.96      3.84      0.00      5.91      9.75       -0.05
  D55               TRENCH               21.72      0.00     17.90      0.00      3.83      0.00      0.00        0.00
  D55               PAVEMENT             21.72      0.00     21.72      0.00      0.00      0.00      0.00       -0.00
  D55               GREENROOF            21.72      0.10      0.00      0.00     18.18      2.36      5.81       -0.02
  D60               RG                   22.98      0.11      4.48     18.13      0.00      0.30      0.57       -0.00
  D60               BIOCELL              22.98      0.10     14.41      4.64      0.00      5.91      9.74       -0.03
  D60               TRENCH               22.98      0.00     18.45      0.00      4.52      0.00      0.00        0.00
  D60               PAVEMENT             22.98      0.00     22.98      0.00      0.00      0.00      0.00       -0.00
  D60               GREENROOF            22.98      0.10      0.00      0.00     19.43      2.36      5.81       -0.00
  D60               VEGSWALE             22.98      0.01      3.06     19.91      0.00      0.00      0.00       -0.02
  D65               RG                   23.05      0.11      4.31     18.37      0.00      0.30      0.57       -0.00
  D65               TRENCH               23.05      0.00     17.92      0.00      5.12      0.00      0.00        0.00
  D65               PAVEMENT             23.05      0.00     23.04      0.00      0.00      0.00      0.00       -0.00
  D65               GREENROOF            23.05      0.10      0.00      0.00     19.52      2.36      5.81       -0.07
  D65               VEGSWALE             23.05      0.01      2.77     20.27      0.00      0.00      0.00       -0.02
  D65               RAINB                23.05      0.00      0.00      0.00     17.05      0.00      6.00       -0.00
  D70               RG                   23.67      0.11      4.26     19.04      0.00      0.30      0.57       -0.00
  D70               PAVEMENT             23.67      0.00     23.67      0.00      0.00      0.00      0.00       -0.00
  D70               GREENROOF            23.67      0.10      0.00      0.00     20.13      2.36      5.81       -0.00
  D70               VEGSWALE             23.67      0.01      2.72     20.95      0.00      0.00      0.00       -0.02
  D70               RAINB                23.67      0.00      0.00      0.00     17.67      0.00      6.00       -0.00
  D70               BIOCELL              23.67      0.10     13.31      6.42      0.00      5.91      9.75       -0.01
  
  ******************
  Node Depth Summary
  ******************
  
  ---------------------------------------------------------------------------------
                                 Average  Maximum  Maximum  Time of Max    Reported
                                   Depth    Depth      HGL   Occurrence   Max Depth
  Node                 Type         Feet     Feet     Feet  days hr:min        Feet
  ---------------------------------------------------------------------------------
  1001                 JUNCTION     0.09     1.68   710.62     0  00:51        1.65
  105                  JUNCTION     0.02     0.55   679.34     0  00:50        0.55
  13                   JUNCTION     0.02     0.03   689.41     0  07:50        0.03
  136                  JUNCTION     3.86    10.69   675.82     0  00:58       10.58
  137                  JUNCTION     0.11     8.59   699.08     0  00:51        3.93
  140                  JUNCTION     2.54     7.19   673.47     0  00:59        7.19
  144                  JUNCTION     2.74     5.60   671.95     0  00:55        5.60
  147                  JUNCTION     0.06     0.50   687.04     0  00:55        0.50
  15                   JUNCTION     0.02     0.03   687.89     0  08:00        0.03
  150                  JUNCTION     0.06     1.23   683.02     0  00:51        1.12
  158                  JUNCTION     0.53     6.24   676.30     0  00:58        6.17
  166                  JUNCTION     2.10     7.31   677.38     0  01:00        7.31
  173                  JUNCTION     0.36     3.68   673.70     0  00:58        3.48
  179                  JUNCTION     0.35     3.50   672.29     0  00:55        3.50
  18                   JUNCTION     0.01     0.02   694.56     0  07:25        0.02
  183                  JUNCTION     0.07     1.81   672.76     0  00:55        1.81
  19                   JUNCTION     0.09     1.62   673.50     0  00:51        1.47
  200                  JUNCTION     0.08     1.07   690.18     0  00:55        1.07
  201                  JUNCTION     0.32     2.54   696.42     0  00:50        2.08
  205                  JUNCTION     3.87     8.20   672.97     0  00:48        7.80
  209                  JUNCTION     3.16    12.20   683.25     0  00:51        6.84
  232                  JUNCTION     0.80     6.48   677.89     0  00:52        6.17
  244                  JUNCTION     0.03     0.76   679.30     0  00:52        0.68
  25                   JUNCTION     0.00     0.00   673.85     0  09:00        0.00
  255                  JUNCTION     0.20     1.17   670.13     0  01:50        1.17
  257                  JUNCTION     7.89     9.45   679.98     0  00:49        9.35
  26                   JUNCTION     2.92     4.69   670.18     0  01:52        4.69
  260                  JUNCTION     0.53     5.00   677.44     0  00:56        5.00
  261                  JUNCTION     0.56     5.29   677.91     0  01:01        5.25
  267                  JUNCTION     0.03     0.82   697.57     0  00:50        0.81
  269                  JUNCTION     6.98    13.73   680.88     0  00:51       10.69
  276                  JUNCTION     0.03     0.95   681.41     0  00:52        0.90
  281                  JUNCTION     0.75     5.85   678.32     0  01:00        5.81
  285                  JUNCTION     0.03     1.20   682.66     0  00:52        1.11
  297                  JUNCTION     0.27     5.96   680.00     0  00:55        4.24
  304                  JUNCTION     0.30     3.85   678.66     0  00:55        3.52
  306                  JUNCTION     0.07     1.11   681.06     0  00:51        1.04
  31                   JUNCTION     0.02     0.53   672.19     0  00:50        0.53
  32                   JUNCTION     0.00     0.01   697.86     0  07:16        0.01
  323                  JUNCTION     1.44     7.20   685.84     0  00:49        4.98
  325                  JUNCTION     0.13     1.31   678.43     0  01:00        1.28
  33                   JUNCTION     0.03     0.04   693.94     0  07:14        0.04
  333                  JUNCTION     2.57     8.22   685.06     0  00:50        8.07
  348                  JUNCTION     0.56     4.99   687.66     0  00:51        3.47
  351                  JUNCTION     6.64    11.72   687.35     0  00:49       10.51
  371                  JUNCTION     0.04     0.90   697.96     0  00:51        0.88
  384                  JUNCTION     1.28     6.96   688.07     0  00:50        5.10
  387                  JUNCTION     3.12     5.40   699.35     0  00:51        5.39
  393                  JUNCTION     0.06     0.09   688.42     0  07:13        0.09
  4                    JUNCTION     0.01     0.02   691.32     0  07:46        0.02
  407                  JUNCTION     0.03     0.62   708.98     0  00:52        0.59
  46                   JUNCTION     0.35    12.25   699.52     0  00:49        9.48
  56                   JUNCTION     0.07     0.10   685.33     0  07:24        0.10
  64                   JUNCTION     0.21     9.42   697.88     0  00:49        8.10
  7                    JUNCTION     0.10     1.86   676.36     0  00:54        1.85
  74                   JUNCTION     2.44     4.20   670.18     0  01:51        4.20
  76                   JUNCTION     0.19     8.78   697.59     0  00:49        7.53
  77                   JUNCTION     1.12     2.77   670.22     0  01:48        2.76
  879                  JUNCTION     0.01     0.01   697.42     0  08:00        0.01
  882                  JUNCTION     0.03     0.19   692.67     0  00:56        0.19
  893                  JUNCTION     0.03     0.56   703.25     0  00:52        0.53
  894                  JUNCTION     0.02     0.57   705.84     0  00:50        0.57
  95                   JUNCTION     0.04     0.92   695.10     0  00:51        0.91
  956                  JUNCTION     0.04     0.55   694.92     0  00:53        0.55
  974                  JUNCTION     0.21     2.69   678.40     0  01:00        2.67
  982                  JUNCTION     0.33     2.57   678.42     0  00:59        2.57
  DUMMY2D              JUNCTION     0.00     0.00   211.49     0  00:00        0.00
  JCT-10               JUNCTION     0.44     3.72   673.74     0  00:58        3.60
  JCT-100              JUNCTION     0.65     4.00   720.75     0  01:09        4.00
  JCT-102              JUNCTION     0.60     2.98   718.98     0  01:09        2.98
  JCT-104              JUNCTION     0.87     5.74   720.68     0  01:49        5.74
  JCT-106              JUNCTION     1.09     6.52   719.99     0  01:49        6.52
  JCT-108              JUNCTION     0.70     3.94   716.83     0  01:23        3.94
  JCT-110              JUNCTION     0.19     1.05   711.82     0  01:45        0.94
  JCT-112              JUNCTION     0.18     2.55   722.04     0  01:49        2.55
  JCT-114              JUNCTION     0.10     0.23   719.88     0  02:10        0.23
  JCT-116              JUNCTION     0.12     1.13   719.94     0  01:39        1.10
  JCT-118              JUNCTION     0.48     3.99   718.83     0  01:35        3.99
  JCT-12               JUNCTION     0.48     4.02   673.20     0  01:06        3.18
  JCT-120              JUNCTION     0.24     0.50   713.90     0  01:07        0.50
  JCT-122              JUNCTION     0.32     1.70   714.00     0  01:12        1.64
  JCT-124              JUNCTION     0.67     4.04   712.49     0  01:15        4.04
  JCT-126              JUNCTION     0.63     3.32   706.61     0  01:12        3.31
  JCT-128              JUNCTION     0.11     0.20   699.82     0  02:13        0.20
  JCT-130              JUNCTION     0.07     0.25   715.90     0  01:50        0.25
  JCT-132              JUNCTION     0.08     0.29   715.73     0  01:50        0.29
  JCT-134              JUNCTION     0.03     0.05   712.06     0  07:10        0.05
  JCT-136              JUNCTION     0.01     0.02   707.58     0  07:58        0.02
  JCT-138              JUNCTION    10.81    31.63   711.63     0  01:32       26.14
  JCT-14               JUNCTION     0.38     4.34   672.68     0  01:05        4.02
  JCT-140              JUNCTION     8.85    30.49   712.49     0  01:32       23.89
  JCT-142              JUNCTION     5.96    28.93   713.93     0  01:32       20.17
  JCT-144              JUNCTION     5.42    17.23   702.73     0  01:19       17.23
  JCT-146              JUNCTION     6.75    22.41   708.41     0  00:53       22.41
  JCT-148              JUNCTION    24.69    41.48   709.18     0  00:53       41.48
  JCT-150              JUNCTION    22.01    39.03   709.03     0  00:52       37.14
  JCT-152              JUNCTION    16.72    32.85   707.85     0  00:52       30.75
  JCT-154              JUNCTION     0.86     3.82   692.82     0  01:08        3.62
  JCT-156              JUNCTION     9.57    25.65   706.12     0  01:00       13.05
  JCT-16               JUNCTION     0.11     0.23   697.11     0  01:55        0.23
  JCT-160              JUNCTION     0.16     0.71   671.74     0  01:04        0.71
  JCT-162              JUNCTION     0.34     1.51   671.68     0  01:02        1.49
  JCT-164              JUNCTION     0.46     2.46   670.05     0  01:00        2.45
  JCT-166              JUNCTION     0.35     2.26   669.20     0  01:10        2.26
  JCT-168              JUNCTION     0.62     2.04   666.90     0  01:09        2.04
  JCT-170              JUNCTION     0.21     1.12   665.08     0  01:12        1.11
  JCT-174              JUNCTION     0.06     1.07   694.34     0  00:56        1.06
  JCT-176              JUNCTION     0.04     0.91   695.80     0  00:55        0.90
  JCT-178              JUNCTION     0.04     0.91   699.08     0  00:54        0.91
  JCT-18               JUNCTION     1.09     4.00   693.97     0  01:29        4.00
  JCT-180              JUNCTION     0.06     1.27   701.53     0  00:53        1.25
  JCT-182              JUNCTION     0.04     1.04   703.52     0  00:52        0.99
  JCT-184              JUNCTION     0.05     1.17   704.18     0  00:52        1.14
  JCT-20               JUNCTION     1.38     4.00   686.57     0  01:27        4.00
  JCT-22               JUNCTION     3.34     8.95   678.06     0  02:18        8.94
  JCT-24               JUNCTION     0.30     3.45   708.29     0  01:54        3.45
  JCT-26               JUNCTION     0.40     3.89   703.51     0  01:47        3.89
  JCT-28               JUNCTION     1.35     4.00   689.15     0  01:26        4.00
  JCT-30               JUNCTION     3.01     7.59   679.21     0  02:12        7.59
  JCT-32               JUNCTION     0.70     4.72   714.90     0  01:44        4.72
  JCT-34               JUNCTION     0.91     4.01   707.13     0  01:35        4.01
  JCT-36               JUNCTION     1.44     4.16   691.55     0  01:23        4.16
  JCT-38               JUNCTION     2.51     6.17   679.28     0  01:45        6.17
  JCT-40               JUNCTION     0.17     0.72   704.17     0  01:46        0.69
  JCT-42               JUNCTION     1.30     4.00   703.39     0  01:27        4.00
  JCT-44               JUNCTION     0.90     4.18   701.34     0  01:54        4.18
  JCT-46               JUNCTION     1.78     4.02   685.34     0  01:10        4.02
  JCT-48               JUNCTION     1.81     4.00   678.61     0  01:16        4.00
  JCT-50               JUNCTION     0.39     4.17   728.45     0  01:28        4.17
  JCT-52               JUNCTION     0.70     7.05   728.05     0  01:48        7.05
  JCT-54               JUNCTION     0.10     0.33   718.00     0  01:49        0.33
  JCT-56               JUNCTION     0.74     4.00   692.05     0  01:05        4.00
  JCT-58               JUNCTION     0.88     5.17   691.22     0  01:48        5.17
  JCT-60               JUNCTION     0.33     0.60   684.81     0  01:58        0.60
  JCT-62               JUNCTION     0.07     0.22   725.63     0  01:50        0.22
  JCT-64               JUNCTION     0.09     0.30   711.63     0  01:50        0.30
  JCT-66               JUNCTION     0.48     4.00   701.57     0  01:23        4.00
  JCT-68               JUNCTION     0.30     0.49   692.49     0  02:15        0.49
  JCT-70               JUNCTION     0.09     0.18   718.02     0  02:10        0.18
  JCT-72               JUNCTION     0.10     0.20   710.60     0  02:10        0.20
  JCT-74               JUNCTION     1.73     4.05   703.86     0  00:58        4.05
  JCT-76               JUNCTION     2.51     4.00   701.16     0  00:54        4.00
  JCT-78               JUNCTION     0.11     0.27   712.45     0  02:08        0.27
  JCT-80               JUNCTION     0.15     0.43   710.79     0  02:13        0.43
  JCT-82               JUNCTION     0.12     0.30   715.41     0  02:09        0.30
  JCT-84               JUNCTION     0.14     0.34   714.38     0  02:10        0.34
  JCT-86               JUNCTION     0.43     4.31   729.93     0  01:38        4.31
  JCT-88               JUNCTION     0.60     4.26   726.26     0  01:15        4.26
  JCT-90               JUNCTION     0.61     4.08   722.97     0  01:15        4.08
  JCT-92               JUNCTION     0.63     4.00   719.36     0  01:14        4.00
  JCT-94               JUNCTION     0.63     5.42   716.42     0  01:48        5.41
  JCT-96               JUNCTION     0.17     0.37   702.37     0  01:44        0.37
  JCT-98               JUNCTION     0.15     1.38   722.18     0  01:39        1.37
  DUMMYOUTFALL         OUTFALL      0.00     0.00   210.00     0  00:00        0.00
  OFALL-10             OUTFALL      0.32     0.60   680.60     0  01:58        0.60
  OFALL-12             OUTFALL      0.14     0.91   660.91     0  01:11        0.90
  VIADUCT1             OUTFALL      0.02     0.53   696.53     0  00:50        0.52
  VIADUCT2             OUTFALL      0.01     0.25   692.25     0  00:53        0.24
  1114                 STORAGE      0.33     2.44   686.08     0  00:52        2.44
  1115                 STORAGE      5.49     7.15   689.65     0  01:36        7.15
  117                  STORAGE      1.90     5.40   672.20     0  00:55        5.39
  163                  STORAGE      1.01     4.15   672.28     0  00:55        4.15
  17                   STORAGE      0.07     1.23   684.17     0  00:54        1.23
  187                  STORAGE      0.62     5.80   677.38     0  00:58        5.80
  229                  STORAGE      0.27     3.74   677.75     0  01:01        3.68
  421                  STORAGE      0.07     1.54   707.09     0  00:50        1.53
  83                   STORAGE      7.70     9.68   670.18     0  01:51        9.67
  989                  STORAGE      0.26     3.18   687.21     0  00:53        2.14
  STOR-10              STORAGE      0.54     0.69   680.69     0  01:50        0.67
  STOR-12              STORAGE      0.50     0.63   685.63     0  02:17        0.63
  STOR-14              STORAGE      1.98    14.89   672.39     0  01:09       14.86
  STOR-16              STORAGE     10.15    21.78   674.61     0  02:25       21.78
  
  
  *******************
  Node Inflow Summary
  *******************
  
  -------------------------------------------------------------------------------------------------
                                  Maximum  Maximum                  Lateral       Total        Flow
                                  Lateral    Total  Time of Max      Inflow      Inflow     Balance
                                   Inflow   Inflow   Occurrence      Volume      Volume       Error
  Node                 Type           CFS      CFS  days hr:min    10^6 gal    10^6 gal     Percent
  -------------------------------------------------------------------------------------------------
  1001                 JUNCTION    221.71   221.71     0  00:50        1.92        1.92      -0.004
  105                  JUNCTION    200.69   200.70     0  00:50         1.5        1.52      -0.042
  13                   JUNCTION      0.01     0.02     0  07:46      0.0027     0.00488       0.127
  136                  JUNCTION    301.49   738.08     0  00:58        2.14        23.9       1.721
  137                  JUNCTION      0.01    15.98     0  00:50     0.00429      0.0361      -0.568
  140                  JUNCTION      0.14   776.11     0  01:14      0.0453        23.5       0.572
  144                  JUNCTION      0.05   512.81     0  00:55      0.0168        9.34       1.619
  147                  JUNCTION      0.01     4.08     0  00:55     0.00473      0.0534      -0.080
  15                   JUNCTION      0.02     0.03     0  07:52     0.00502     0.00987       0.066
  150                  JUNCTION      0.02   348.18     0  00:51     0.00754        3.21      -0.340
  158                  JUNCTION      0.15   688.23     0  01:20      0.0466        20.2       0.021
  166                  JUNCTION      0.00    79.70     0  00:46           0      0.0937     236.389
  173                  JUNCTION      0.04    64.91     0  01:01      0.0131        1.47      -0.027
  179                  JUNCTION      0.06   455.72     0  00:49      0.0178        7.11      -0.068
  18                   JUNCTION      0.00     0.01     0  08:00     0.00115     0.00223       0.142
  183                  JUNCTION    195.19   540.66     0  00:50        1.37        4.02      -0.037
  19                   JUNCTION    218.88   647.69     0  00:52        1.47        6.04      -0.162
  200                  JUNCTION    249.89   346.29     0  00:53        2.45        3.82      -0.143
  201                  JUNCTION    165.93   165.93     0  00:50        2.21        2.23       0.227
  205                  JUNCTION      0.12   365.09     0  00:52      0.0379        3.33       8.677
  209                  JUNCTION    210.70   894.79     0  00:51        1.69        5.95      16.142
  232                  JUNCTION    268.74   589.81     0  00:52        1.99        4.87       0.321
  244                  JUNCTION      0.08   369.03     0  00:51      0.0248         2.1      -0.086
  25                   JUNCTION      0.00     0.00     0  07:00    6.27e-07    6.27e-07       0.627 gal
  255                  JUNCTION      0.16   512.77     0  00:55      0.0528        16.8      -0.426
  257                  JUNCTION    210.48   210.48     0  00:49        1.29         1.3       9.474
  26                   JUNCTION      0.02   200.75     0  00:52     0.00554        2.22      16.727
  260                  JUNCTION      0.00   485.48     0  01:01           0        10.4       0.092
  261                  JUNCTION      0.00   482.56     0  01:01    0.000624        10.3       0.060
  267                  JUNCTION    349.64   349.64     0  00:50        2.65        2.65      -0.030
  269                  JUNCTION    222.82   733.58     0  00:52        1.97        7.42      10.902
  276                  JUNCTION      0.15   334.41     0  00:51      0.0477        1.75       0.058
  281                  JUNCTION    199.10   730.19     0  00:51        1.43        11.9       0.539
  285                  JUNCTION      0.01   545.36     0  00:50     0.00171        2.62       0.131
  297                  JUNCTION      0.00   233.73     0  00:55     0.00134       0.652       0.706
  304                  JUNCTION      0.00    37.87     0  00:55    0.000335       0.208      -0.493
  306                  JUNCTION      0.08   529.89     0  00:51      0.0259        5.92      -0.003
  31                   JUNCTION    181.40   181.40     0  00:50        1.32        1.32      -0.131
  32                   JUNCTION      0.00     0.00     0  07:00    0.000428    0.000428       0.064
  323                  JUNCTION    424.01  1068.88     0  00:51        3.34        8.74       2.665
  325                  JUNCTION      0.00    82.89     0  00:57    0.000584        4.02       0.042
  33                   JUNCTION      0.02     0.02     0  07:00       0.008       0.008       0.177
  333                  JUNCTION      0.01    50.14     0  01:00      0.0047        4.02       0.148
  348                  JUNCTION    167.00   802.04     0  00:51        1.55         3.6      -0.818
  351                  JUNCTION      0.01   619.27     0  00:51     0.00422        6.33      12.235
  371                  JUNCTION      0.01   658.90     0  00:51     0.00187         5.4       0.026
  384                  JUNCTION    154.32   453.71     0  00:50         1.2         5.4       1.086
  387                  JUNCTION    456.06   658.91     0  00:51        3.94        5.86       8.567
  393                  JUNCTION      0.06     0.06     0  07:00      0.0187      0.0187       0.105
  4                    JUNCTION      0.00     0.01     0  07:33           0      0.0022       0.196
  407                  JUNCTION      0.01   216.93     0  00:50     0.00368        1.93      -0.011
  46                   JUNCTION    115.32   115.32     0  00:51        1.19        1.23      -0.018
  56                   JUNCTION      0.04     0.05     0  07:14      0.0124       0.017       0.261
  64                   JUNCTION      0.01    15.94     0  00:50      0.0027      0.0675      -0.576
  7                    JUNCTION    321.35   780.12     0  00:53        2.83        7.74      -0.084
  74                   JUNCTION      0.01   969.31     0  00:56     0.00174        30.1       0.562
  76                   JUNCTION      0.01    15.87     0  00:50     0.00365       0.051      -0.127
  77                   JUNCTION      0.08   886.11     0  00:55      0.0249        29.1      -0.005
  879                  JUNCTION      0.00     0.00     0  07:16    0.000661     0.00109       0.065
  882                  JUNCTION      0.01    12.00     0  00:51     0.00314       0.263       0.274
  893                  JUNCTION      0.00   193.72     0  00:51    0.000169        1.61      -0.116
  894                  JUNCTION      0.00   305.50     0  00:50           0        2.49      -0.026
  95                   JUNCTION    349.91   349.91     0  00:51         3.2         3.2      -0.009
  956                  JUNCTION     93.24   252.17     0  00:51       0.809        2.78      -0.156
  974                  JUNCTION      0.01   273.68     0  00:56      0.0022         4.5       0.166
  982                  JUNCTION      0.00   205.31     0  00:56    0.000494        4.13       0.234
  DUMMY2D              JUNCTION      0.00     0.00     0  00:00           0           0       0.000 gal
  JCT-10               JUNCTION     65.84   100.13     0  00:52       0.426        2.18       0.068
  JCT-100              JUNCTION      0.35     0.69     0  01:49      0.0227      0.0476       0.042
  JCT-102              JUNCTION      0.42     1.23     0  01:49      0.0279      0.0796       0.038
  JCT-104              JUNCTION      0.24     0.61     0  01:49      0.0157      0.0794       0.084
  JCT-106              JUNCTION      0.28     0.51     0  01:49      0.0159      0.0874       0.099
  JCT-108              JUNCTION      0.45     0.97     0  01:49      0.0248       0.112       0.036
  JCT-110              JUNCTION      0.21     0.93     0  01:44      0.0141       0.122       0.022
  JCT-112              JUNCTION      0.37     0.37     0  01:49      0.0201      0.0201      -0.017
  JCT-114              JUNCTION      0.12     0.12     0  02:07      0.0151      0.0151       0.100
  JCT-116              JUNCTION      0.31     0.31     0  01:49      0.0208      0.0208       0.017
  JCT-118              JUNCTION      0.53     0.83     0  01:49      0.0341      0.0549       0.047
  JCT-12               JUNCTION      0.03    39.83     0  00:58     0.00852       0.734       0.013
  JCT-120              JUNCTION      0.29     1.27     0  01:49      0.0159      0.0847       0.058
  JCT-122              JUNCTION      0.40     0.53     0  01:11      0.0269      0.0753       0.020
  JCT-124              JUNCTION      0.36     1.09     0  01:49      0.0194       0.115       0.030
  JCT-126              JUNCTION      0.00     0.68     0  02:19    0.000902       0.108       0.022
  JCT-128              JUNCTION      0.00     0.68     0  02:28     0.00143        0.11      -0.000
  JCT-130              JUNCTION      0.39     0.39     0  01:49      0.0211      0.0211      -0.018
  JCT-132              JUNCTION      0.28     0.28     0  01:49      0.0154      0.0154      -0.019
  JCT-134              JUNCTION      0.01     0.01     0  07:00      0.0032      0.0032       0.154
  JCT-136              JUNCTION      0.00     0.01     0  07:12           0     0.00319       0.102
  JCT-138              JUNCTION      0.01     3.51     0  07:00     0.00315       0.339       2.044
  JCT-14               JUNCTION      0.00    38.81     0  00:58    0.000991       0.735      -0.044
  JCT-140              JUNCTION      0.01     4.02     0  01:09     0.00397       0.358      -2.923
  JCT-142              JUNCTION      0.01     6.92     0  01:16     0.00371       0.469       2.905
  JCT-144              JUNCTION      0.00     6.61     0  01:32     0.00144       0.436       4.962
  JCT-146              JUNCTION      0.00    10.69     0  00:52    0.000527       0.524       2.004
  JCT-148              JUNCTION      0.00    17.50     0  00:45           0        1.13      -2.933
  JCT-150              JUNCTION      0.00    16.26     0  00:49           0       0.952       4.911
  JCT-152              JUNCTION      0.00    13.31     0  00:51           0       0.911      -0.213
  JCT-154              JUNCTION      0.00    11.99     0  01:06     0.00134        1.81       0.263
  JCT-156              JUNCTION      0.00     3.92     0  01:00    0.000463       0.912       0.785
  JCT-16               JUNCTION      0.34     0.34     0  01:54      0.0527      0.0527       0.017
  JCT-160              JUNCTION      1.77    27.11     0  00:59        1.24        1.32       1.204
  JCT-162              JUNCTION      0.00   306.44     0  00:56           0        4.44       2.210
  JCT-164              JUNCTION      0.00   779.74     0  00:53           0        10.2      -0.466
  JCT-166              JUNCTION      0.00   711.84     0  01:02           0        10.2       2.058
  JCT-168              JUNCTION      0.00   673.00     0  01:09           0        23.5       0.154
  JCT-170              JUNCTION      0.00   673.90     0  01:10           0        23.4       0.126
  JCT-174              JUNCTION      0.00   123.36     0  00:55           0        1.02       0.028
  JCT-176              JUNCTION      0.00   123.94     0  00:55           0        1.02       0.019
  JCT-178              JUNCTION      0.00   124.69     0  00:53           0        1.02       0.059
  JCT-18               JUNCTION      0.79     1.12     0  01:55       0.101       0.154       0.007
  JCT-180              JUNCTION      0.00   126.24     0  00:52           0        1.02       0.006
  JCT-182              JUNCTION      0.00   127.04     0  00:52           0        1.02      -0.039
  JCT-184              JUNCTION    127.40   127.40     0  00:52        1.02        1.02      -0.000
  JCT-20               JUNCTION      0.71     1.51     0  01:54      0.0906       0.234       0.000
  JCT-22               JUNCTION      0.59     5.48     0  01:27      0.0865       0.904      -0.014
  JCT-24               JUNCTION      0.63     0.63     0  01:54      0.0829      0.0829       0.003
  JCT-26               JUNCTION      0.55     1.18     0  01:55      0.0848       0.168       0.011
  JCT-28               JUNCTION      0.55     1.68     0  01:54      0.0897       0.257       0.006
  JCT-30               JUNCTION      0.57     3.97     0  01:27      0.0854       0.633       0.039
  JCT-32               JUNCTION      0.91     0.91     0  01:54       0.125       0.125       0.007
  JCT-34               JUNCTION      0.56     1.41     0  01:54      0.0859       0.211       0.011
  JCT-36               JUNCTION      0.57     1.67     0  01:54      0.0922       0.294       0.005
  JCT-38               JUNCTION      0.52     2.50     0  01:26      0.0689       0.417       0.025
  JCT-40               JUNCTION      0.25     0.25     0  01:54      0.0324      0.0324      -0.002
  JCT-42               JUNCTION      0.76     1.01     0  01:54       0.103       0.135       0.004
  JCT-44               JUNCTION      0.74     1.16     0  01:26       0.114       0.221       0.009
  JCT-46               JUNCTION      0.81     1.95     0  01:54       0.103       0.323      -0.001
  JCT-48               JUNCTION      0.65     1.92     0  01:54      0.0827        0.34       0.003
  JCT-50               JUNCTION      0.48     0.48     0  01:49       0.026       0.026      -0.027
  JCT-52               JUNCTION      0.75     0.94     0  01:49      0.0492       0.072       0.007
  JCT-54               JUNCTION      0.37     1.32     0  01:49      0.0237      0.0956       0.005
  JCT-56               JUNCTION      0.39     1.70     0  01:49      0.0244        0.12       0.001
  JCT-58               JUNCTION      0.36     0.64     0  01:49      0.0227       0.103       0.017
  JCT-60               JUNCTION      0.01    13.82     0  01:57      0.0024         2.3       0.042
  JCT-62               JUNCTION      0.37     0.37     0  01:49      0.0242      0.0242       0.026
  JCT-64               JUNCTION      0.39     0.76     0  01:50      0.0259      0.0501       0.030
  JCT-66               JUNCTION      0.38     1.14     0  01:50      0.0252      0.0753       0.040
  JCT-68               JUNCTION      0.01     1.58     0  01:23      0.0027       0.405       0.016
  JCT-70               JUNCTION      0.12     0.23     0  02:09      0.0168      0.0319       0.069
  JCT-72               JUNCTION      0.11     0.34     0  02:10      0.0137      0.0455       0.040
  JCT-74               JUNCTION      0.11     1.28     0  02:12      0.0143       0.155       0.027
  JCT-76               JUNCTION      8.93     9.45     0  02:07       0.834       0.956      -0.009
  JCT-78               JUNCTION      0.22     0.22     0  02:07      0.0256      0.0256       0.030
  JCT-80               JUNCTION      0.17     0.83     0  02:09      0.0198      0.0947       0.039
  JCT-82               JUNCTION      0.21     0.21     0  02:07      0.0224      0.0224       0.028
  JCT-84               JUNCTION      0.23     0.44     0  02:08       0.027      0.0494       0.043
  JCT-86               JUNCTION      0.69     0.69     0  01:49        0.04        0.04       0.006
  JCT-88               JUNCTION      0.36     0.97     0  01:49      0.0221      0.0616       0.000
  JCT-90               JUNCTION      0.35     0.85     0  01:49      0.0193      0.0714       0.005
  JCT-92               JUNCTION      0.44     0.99     0  01:49      0.0281       0.092       0.024
  JCT-94               JUNCTION      0.50     0.97     0  01:49      0.0276       0.108       0.012
  JCT-96               JUNCTION      0.74     2.58     0  01:44      0.0945       0.324       0.021
  JCT-98               JUNCTION      0.34     0.34     0  01:49      0.0249      0.0249       0.023
  DUMMYOUTFALL         OUTFALL       0.00     0.00     0  00:00           0           0       0.000 gal
  OFALL-10             OUTFALL       0.00    13.82     0  01:58           0         2.3       0.000
  OFALL-12             OUTFALL       0.00   670.11     0  01:11           0        23.4       0.000
  VIADUCT1             OUTFALL       0.00   110.81     0  00:50           0       0.885       0.000
  VIADUCT2             OUTFALL       0.00    35.24     0  00:53           0       0.399       0.000
  1114                 STORAGE     300.07  1071.10     0  00:54        2.62        7.01      -0.060
  1115                 STORAGE     216.83   216.83     0  00:50        1.51        1.51       0.288
  117                  STORAGE     303.15  1017.44     0  00:52        2.13        27.2       0.255
  163                  STORAGE       0.00   562.10     0  00:50           0        9.77       0.762
  17                   STORAGE     272.98   479.47     0  00:54        2.69        4.91       0.001
  187                  STORAGE     219.45  1399.18     0  00:52         1.6          22       0.289
  229                  STORAGE       0.00  1145.27     0  00:52           0        9.44       0.391
  421                  STORAGE     306.62   306.62     0  00:50        2.49        2.49       0.004
  83                   STORAGE       0.00  1366.31     0  00:58           0          28       7.722
  989                  STORAGE       0.00   427.11     0  00:52           0       0.427       7.834
  STOR-10              STORAGE       0.00     2.58     0  01:44           0       0.324       0.208
  STOR-12              STORAGE       0.00     0.68     0  02:19           0        0.11       0.631
  STOR-14              STORAGE       0.00    38.72     0  00:58           0       0.738       0.504
  STOR-16              STORAGE       0.00     5.09     0  01:27           0       0.904      -0.079
  
  
  **********************
  Node Surcharge Summary
  **********************
  
  Surcharging occurs when water rises above the top of the highest conduit.
  ---------------------------------------------------------------------
                                               Max. Height   Min. Depth
                                   Hours       Above Crown    Below Rim
  Node                 Type      Surcharged           Feet         Feet
  ---------------------------------------------------------------------
  136                  JUNCTION       10.53          7.436        0.484
  137                  JUNCTION        0.12          6.592        1.097
  144                  JUNCTION       25.37          3.599        2.651
  158                  JUNCTION        0.81          2.988        0.763
  166                  JUNCTION        2.02          5.307        1.123
  179                  JUNCTION        0.32          1.498        1.511
  201                  JUNCTION        0.10          0.545        6.229
  205                  JUNCTION       16.25          5.202        4.968
  209                  JUNCTION        0.75          8.200        0.000
  232                  JUNCTION        0.71          2.732        0.000
  257                  JUNCTION       25.40          7.448        6.072
  269                  JUNCTION       25.30          9.730        0.000
  281                  JUNCTION        0.63          2.100        0.702
  297                  JUNCTION        0.53          3.208        2.057
  304                  JUNCTION        0.38          1.095        3.486
  323                  JUNCTION        0.16          3.204        9.446
  333                  JUNCTION        3.27          5.474        0.000
  348                  JUNCTION        1.20          2.490        0.000
  351                  JUNCTION       25.30          8.724        0.156
  384                  JUNCTION        1.97          3.958        3.236
  387                  JUNCTION        0.26          1.397        8.453
  46                   JUNCTION        0.18          8.250        2.804
  64                   JUNCTION        0.22          6.924        4.395
  76                   JUNCTION        0.19          6.282        4.678
  JCT-100              JUNCTION        1.74          3.500        0.000
  JCT-102              JUNCTION        2.06          2.484        0.000
  JCT-104              JUNCTION        2.39          5.243        0.086
  JCT-106              JUNCTION        4.28          6.024        0.482
  JCT-108              JUNCTION        2.34          3.442        0.000
  JCT-110              JUNCTION        0.46          0.549        2.774
  JCT-112              JUNCTION        0.76          2.051        1.531
  JCT-116              JUNCTION        0.56          0.628        2.872
  JCT-118              JUNCTION        1.27          3.489        0.000
  JCT-12               JUNCTION        0.17          1.017        9.402
  JCT-120              JUNCTION        1.66          0.000        0.000
  JCT-122              JUNCTION        1.53          1.200        0.000
  JCT-124              JUNCTION        1.72          3.539        0.000
  JCT-126              JUNCTION        1.87          2.822        0.722
  JCT-138              JUNCTION       25.05         30.125        0.000
  JCT-14               JUNCTION        0.50          1.338       24.369
  JCT-140              JUNCTION       24.95         28.987        0.000
  JCT-142              JUNCTION       24.82         27.431        0.000
  JCT-144              JUNCTION       24.81         15.729        0.000
  JCT-146              JUNCTION       25.23         20.913        0.000
  JCT-148              JUNCTION       25.31         39.983        0.000
  JCT-150              JUNCTION       25.30         37.528        7.220
  JCT-152              JUNCTION       25.25         31.345        1.792
  JCT-154              JUNCTION        1.36          2.315        3.176
  JCT-156              JUNCTION       25.11         24.148        0.000
  JCT-18               JUNCTION        4.25          3.500        0.000
  JCT-20               JUNCTION        5.18          3.500        0.000
  JCT-22               JUNCTION        6.76          7.945        5.373
  JCT-24               JUNCTION        0.78          2.953        0.547
  JCT-26               JUNCTION        1.10          3.393        0.000
  JCT-28               JUNCTION        5.03          3.500        0.000
  JCT-30               JUNCTION        6.86          6.594        2.666
  JCT-32               JUNCTION        2.40          4.219        0.000
  JCT-34               JUNCTION        3.01          3.512        0.000
  JCT-36               JUNCTION        5.14          3.659        0.000
  JCT-38               JUNCTION        6.72          5.169        0.000
  JCT-40               JUNCTION        0.87          0.222        3.278
  JCT-42               JUNCTION        5.35          3.500        0.000
  JCT-44               JUNCTION        3.88          3.681        5.819
  JCT-46               JUNCTION        6.76          3.523        0.000
  JCT-48               JUNCTION        6.96          3.333        0.000
  JCT-50               JUNCTION        0.97          3.670        0.000
  JCT-52               JUNCTION        1.27          6.549        6.341
  JCT-56               JUNCTION        1.84          3.500        0.000
  JCT-58               JUNCTION        2.86          4.667        0.833
  JCT-66               JUNCTION        1.12          3.500        0.000
  JCT-74               JUNCTION       10.59          3.550        0.000
  JCT-76               JUNCTION       11.24          3.495        0.000
  JCT-86               JUNCTION        1.26          3.807        0.000
  JCT-88               JUNCTION        1.40          3.760        0.000
  JCT-90               JUNCTION        1.49          3.581        0.000
  JCT-92               JUNCTION        1.57          3.500        0.000
  JCT-94               JUNCTION        1.49          4.918        3.550
  JCT-98               JUNCTION        0.82          0.877        2.736
  
  
  *********************
  Node Flooding Summary
  *********************
  
  Flooding refers to all water that overflows a node, whether it ponds or not.
  --------------------------------------------------------------------------
                                                             Total   Maximum
                                 Maximum   Time of Max       Flood    Ponded
                        Hours       Rate    Occurrence      Volume     Depth
  Node                 Flooded       CFS   days hr:min    10^6 gal      Feet
  --------------------------------------------------------------------------
  209                     0.01    536.08      0  00:51       0.034     0.000
  232                     0.01    159.17      0  00:52       0.011     0.000
  260                     0.35    382.22      0  01:01       2.070     0.000
  269                     0.01    198.90      0  00:51       0.011     0.000
  333                     0.01      1.36      0  00:50       0.000     0.000
  348                     0.02    699.22      0  00:51       0.148     0.000
  JCT-100                 0.88      0.26      0  01:49       0.004     0.000
  JCT-102                 1.65      1.23      0  01:49       0.036     0.000
  JCT-108                 0.85      0.31      0  01:49       0.004     0.000
  JCT-118                 0.57      0.19      0  01:49       0.002     0.000
  JCT-120                 1.66      1.27      0  01:49       0.036     0.000
  JCT-122                 0.01      0.11      0  01:12       0.000     0.000
  JCT-124                 1.22      0.41      0  01:49       0.008     0.000
  JCT-138                 0.01      0.85      0  01:39       0.000     0.000
  JCT-140                 0.01      1.08      0  01:39       0.000     0.000
  JCT-144                 1.10      5.53      0  01:46       0.094     0.000
  JCT-146                 1.60      6.44      0  00:53       0.116     0.000
  JCT-148                 0.89      0.97      0  01:09       0.017     0.000
  JCT-18                  2.63      0.33      0  01:55       0.011     0.000
  JCT-20                  4.50      0.66      0  01:58       0.049     0.000
  JCT-26                  0.46      0.06      0  01:54       0.000     0.000
  JCT-28                  4.22      0.77      0  01:55       0.046     0.000
  JCT-32                  0.52      0.05      0  01:54       0.000     0.000
  JCT-34                  2.13      0.31      0  01:54       0.009     0.000
  JCT-36                  4.37      0.62      0  01:54       0.047     0.000
  JCT-38                  3.12      0.55      0  02:09       0.022     0.000
  JCT-42                  3.63      0.61      0  01:55       0.028     0.000
  JCT-46                  6.49      1.19      0  01:54       0.125     0.000
  JCT-48                  6.45      1.92      0  01:54       0.238     0.000
  JCT-50                  0.74      0.28      0  01:49       0.003     0.000
  JCT-56                  1.68      1.42      0  01:49       0.039     0.000
  JCT-66                  0.94      0.43      0  01:50       0.006     0.000
  JCT-74                  2.77      0.77      0  02:12       0.032     0.000
  JCT-76                 10.34      8.58      0  02:07       0.623     0.000
  JCT-86                  0.38      0.08      0  01:49       0.000     0.000
  JCT-88                  1.17      0.47      0  01:49       0.010     0.000
  JCT-90                  1.33      0.30      0  01:49       0.007     0.000
  JCT-92                  1.40      0.53      0  01:49       0.012     0.000
  1114                    0.76   1060.08      0  00:54       4.659     0.000
  187                     0.17    525.47      0  01:01       1.501     0.000
  
  
  **********************
  Storage Volume Summary
  **********************
  
  ------------------------------------------------------------------------------------------------
                         Average    Avg   Evap  Exfil     Maximum    Max    Time of Max    Maximum
                          Volume   Pcnt   Pcnt   Pcnt      Volume   Pcnt     Occurrence    Outflow
  Storage Unit          1000 ftł   Full   Loss   Loss    1000 ftł   Full    days hr:min        CFS
  ------------------------------------------------------------------------------------------------
  1114                     0.137   11.7    0.0    0.0       1.169  100.0       0  00:52     572.74
  1115                   130.951   24.8    0.2    0.0     195.766   37.0       0  01:36       1.93
  117                      0.701    0.0    0.0    0.0      17.525    0.2       0  00:55    1002.94
  163                      0.044    0.0    0.0    0.0       0.181    0.0       0  00:55     512.82
  17                       0.003    0.7    0.0    0.0       0.054   12.6       0  00:54     478.19
  187                      6.095    4.3    0.0    0.0     140.458  100.0       0  00:58     704.33
  229                      4.112    0.0    0.0    0.0     120.326    0.2       0  01:01     697.20
  421                      0.003    0.0    0.0    0.0       0.067    0.0       0  00:50     305.51
  83                     969.651   62.3    0.1   48.9    1504.431   96.6       0  01:51     304.48
  989                      0.016    0.1    0.0    0.0       4.149   30.2       0  00:53     244.38
  STOR-10                  0.121    1.7    0.0    0.0       0.153    2.2       0  01:50       3.50
  STOR-12                  0.056    2.0    0.0    0.0       0.071    2.5       0  02:17       3.50
  STOR-14                  1.840    3.8    0.0    0.0      13.835   28.9       0  01:09      17.50
  STOR-16                  0.943   32.1    0.0    0.0       2.024   68.8       0  02:25       3.37
  
  
  ***********************
  Outfall Loading Summary
  ***********************
  
  ---------------------------------------------------------------------------------------
                         Flow       Avg       Max       Total         Total         Total
                         Freq      Flow      Flow      Volume            TN           TSS
  Outfall Node           Pcnt       CFS       CFS    10^6 gal           lbs           lbs
  ---------------------------------------------------------------------------------------
  DUMMYOUTFALL           0.00      0.00      0.00       0.000         0.000         0.000
  OFALL-10              99.69      4.82     13.82       2.301         0.000         0.000
  OFALL-12              97.54     74.47    670.11      23.351         0.000         0.000
  VIADUCT1              21.14     14.55    110.81       0.885         0.000         0.000
  VIADUCT2              98.89      1.45     35.24       0.399         0.000         0.000
  ---------------------------------------------------------------------------------------
  System                63.45     95.29    715.44      26.936         0.000         0.000
  
  
  ********************
  Link Flow Summary
  ********************
  
  -----------------------------------------------------------------------------
                                 Maximum  Time of Max   Maximum    Max/    Max/
                                  |Flow|   Occurrence   |Veloc|    Full    Full
  Link                 Type          CFS  days hr:min    ft/sec    Flow   Depth
  -----------------------------------------------------------------------------
  1001OF               CONDUIT    215.59     0  00:50      3.48    0.63    0.57
  105OF                CONDUIT    195.68     0  00:50      2.78    0.11    0.64
  1114                 CONDUIT     14.87     0  01:00      9.46    0.65    1.00
  117                  CONDUIT    229.09     0  01:02     15.43    0.15    0.67
  117OF                CONDUIT    827.56     0  00:55      7.56    1.87    1.00
  1209                 CONDUIT      6.75     0  00:51      6.95    0.95    0.56
  1211                 CONDUIT      5.37     0  00:51      5.47    0.61    0.56
  1225                 CONDUIT     15.88     0  00:50      6.34    1.25    1.00
  1226                 CONDUIT      0.00     0  07:16      0.25    0.00    0.01
  1228                 CONDUIT      4.33     0  00:51      9.43    0.61    0.57
  1230                 CONDUIT      3.60     0  00:52      5.46    0.61    0.78
  1249                 CONDUIT      0.06     0  07:16      2.61    0.00    0.51
[...]
  CDT-137                 1.00   0.00  0.00  0.00  1.00  0.00  0.00  0.00  0.04  0.00
  CDT-141                 1.00   0.00  0.00  0.00  1.00  0.00  0.00  0.00  0.04  0.00
  CDT-143                 1.00   0.00  0.00  0.00  1.00  0.00  0.00  0.00  0.05  0.00
  CDT-147                 1.00   0.00  0.00  0.00  1.00  0.00  0.00  0.00  0.03  0.00
  CDT-149                 1.00   0.00  0.00  0.00  1.00  0.00  0.00  0.00  0.03  0.00
  CDT-15                  1.00   0.00  0.01  0.00  0.97  0.02  0.00  0.00  0.94  0.00
  CDT-151                 1.00   0.00  0.00  0.00  1.00  0.00  0.00  0.00  0.03  0.00
  CDT-153                 1.00   0.00  0.00  0.00  1.00  0.00  0.00  0.00  0.03  0.00
  CDT-155                 1.00   0.00  0.00  0.00  0.99  0.01  0.00  0.00  0.00  0.00
  CDT-157                 1.00   0.00  0.00  0.00  1.00  0.00  0.00  0.00  0.04  0.00
  CDT-159                 1.00   0.00  0.00  0.00  0.03  0.97  0.00  0.00  0.03  0.00
  CDT-161                 1.89   0.00  0.00  0.00  0.00  1.00  0.00  0.00  0.32  0.00
  CDT-163                 1.00   0.00  0.00  0.00  1.00  0.00  0.00  0.00  0.96  0.00
  CDT-165                 1.00   0.00  0.00  0.00  0.97  0.03  0.00  0.00  0.97  0.00
  CDT-167                 1.00   0.02  0.00  0.00  0.98  0.00  0.00  0.00  0.04  0.00
  CDT-169                 1.00   0.03  0.00  0.00  0.97  0.00  0.00  0.00  0.96  0.00
  CDT-17                  1.00   0.00  0.00  0.00  0.30  0.70  0.00  0.00  0.99  0.00
  CDT-171                 1.00   0.03  0.00  0.00  0.97  0.00  0.00  0.00  0.00  0.00
  CDT-175                 1.00   0.03  0.00  0.00  0.97  0.00  0.00  0.00  0.00  0.00
  CDT-19                  1.00   0.00  0.00  0.00  0.20  0.80  0.00  0.00  0.45  0.00
  CDT-21                  1.00   0.00  0.00  0.00  0.89  0.11  0.00  0.00  0.77  0.00
  CDT-23                  1.00   0.00  0.00  0.00  0.98  0.02  0.00  0.00  0.72  0.00
  CDT-25                  1.00   0.00  0.00  0.00  0.46  0.54  0.00  0.00  0.97  0.00
  CDT-27                  1.00   0.00  0.00  0.00  0.05  0.95  0.00  0.00  0.90  0.00
  CDT-29                  1.00   0.00  0.00  0.00  0.93  0.07  0.00  0.00  0.76  0.00
  CDT-31                  1.00   0.00  0.00  0.00  0.27  0.73  0.00  0.00  0.00  0.00
  CDT-33                  1.00   0.00  0.00  0.00  0.12  0.88  0.00  0.00  0.90  0.00
  CDT-35                  1.00   0.00  0.00  0.00  0.12  0.88  0.00  0.00  0.85  0.00
  CDT-37                  1.00   0.00  0.00  0.00  0.47  0.53  0.00  0.00  0.76  0.00
  CDT-39                  1.00   0.00  0.00  0.00  1.00  0.00  0.00  0.00  0.74  0.00
  CDT-41                  1.00   0.00  0.26  0.00  0.74  0.00  0.00  0.00  0.00  0.87
  CDT-43                  1.00   0.00  0.00  0.00  1.00  0.00  0.00  0.00  0.37  0.00
  CDT-45                  1.00   0.00  0.00  0.00  0.16  0.84  0.00  0.00  0.82  0.00
  CDT-47                  1.00   0.00  0.00  0.00  0.30  0.70  0.00  0.00  0.73  0.00
  CDT-49                  1.00   0.00  0.00  0.00  1.00  0.00  0.00  0.00  0.73  0.00
  CDT-51                  1.00   0.15  0.09  0.00  0.75  0.00  0.00  0.00  0.94  0.00
  CDT-53                  1.00   0.00  0.15  0.00  0.06  0.79  0.00  0.00  0.20  0.00
  CDT-55                  1.00   0.00  0.00  0.00  0.22  0.78  0.00  0.00  1.00  0.00
  CDT-57                  1.00   0.00  0.00  0.00  1.00  0.00  0.00  0.00  0.92  0.00
  CDT-59                  1.00   0.00  0.00  0.00  0.99  0.01  0.00  0.00  0.83  0.00
  CDT-61                  1.00   0.00  0.00  0.00  0.00  1.00  0.00  0.00  1.00  0.00
  CDT-63                  1.00   0.00  0.00  0.00  0.02  0.98  0.00  0.00  1.00  0.00
  CDT-65                  1.00   0.00  0.00  0.00  0.99  0.01  0.00  0.00  0.94  0.00
  CDT-67                  1.00   0.00  0.00  0.00  0.06  0.94  0.00  0.00  0.64  0.00
  CDT-69                  1.00   0.00  0.00  0.00  0.00  1.00  0.00  0.00  1.00  0.00
  CDT-71                  1.00   0.00  0.00  0.00  0.99  0.01  0.00  0.00  1.00  0.00
  CDT-73                  1.00   0.00  0.00  0.00  0.86  0.14  0.00  0.00  0.44  0.00
  CDT-75                  1.00   0.00  0.00  0.00  0.07  0.93  0.00  0.00  0.02  0.00
  CDT-77                  1.00   0.00  0.00  0.00  1.00  0.00  0.00  0.00  0.99  0.00
  CDT-79                  1.00   0.00  0.00  0.00  0.87  0.13  0.00  0.00  0.94  0.00
  CDT-81                  1.00   0.00  0.00  0.00  1.00  0.00  0.00  0.00  1.00  0.00
  CDT-83                  1.00   0.00  0.00  0.00  0.25  0.75  0.00  0.00  0.99  0.00
  CDT-85                  1.00   0.00  0.00  0.00  0.99  0.01  0.00  0.00  0.95  0.00
  CDT-87                  1.00   0.00  0.00  0.00  0.98  0.02  0.00  0.00  0.89  0.00
  CDT-89                  1.00   0.00  0.00  0.00  0.99  0.01  0.00  0.00  0.94  0.00
  CDT-91                  1.00   0.00  0.00  0.00  0.07  0.93  0.00  0.00  0.00  0.00
  CDT-93                  1.00   0.00  0.00  0.00  0.03  0.97  0.00  0.00  0.76  0.00
  CDT-95                  1.00   0.00  0.00  0.00  0.90  0.10  0.00  0.00  0.99  0.00
  CDT-97                  1.00   0.00  0.00  0.00  1.00  0.00  0.00  0.00  0.95  0.00
  CDT-99                  1.00   0.00  0.00  0.00  1.00  0.00  0.00  0.00  0.92  0.00
  R255                    2.35   0.03  0.19  0.00  0.78  0.00  0.00  0.00  0.97  0.00
  R26                     1.00   0.00  0.03  0.00  0.97  0.00  0.00  0.00  0.03  0.00
  R74                     1.49   0.02  0.01  0.00  0.97  0.00  0.00  0.00  0.01  0.00
  R83                     1.00   0.02  0.20  0.00  0.78  0.00  0.00  0.00  0.79  0.00
  RINFLOW                 1.00   0.00  0.52  0.00  0.48  0.00  0.00  0.00  0.97  0.00
  SWALE                   1.00   1.00  0.00  0.00  0.00  0.00  0.00  0.00  0.00  0.00
  
  
  *************************
  Conduit Surcharge Summary
  *************************
  
  ----------------------------------------------------------------------------
                                                           Hours        Hours 
                         --------- Hours Full --------   Above Full   Capacity
  Conduit                Both Ends  Upstream  Dnstream   Normal Flow   Limited
  ----------------------------------------------------------------------------
  105OF                       0.01      0.01     25.38      0.01         0.01
  1114                        1.59      1.59     25.39      0.01         0.01
  117OF                       1.49      1.49      6.67      0.60         0.01
  1209                        0.01      0.41      0.01      0.01         0.01
  1211                        0.01      0.01      0.15      0.01         0.01
  1225                        0.12      0.12      0.23      0.02         0.01
  1230                        0.01      0.01      3.41      0.01         0.01
  1249                        0.01      0.01      0.04      0.01         0.01
  1269                        0.01      0.01      0.11      0.01         0.01
  1270                        0.18      0.18      0.23      0.18         0.18
  1277                        0.01      0.18      0.01      0.13         0.01
  1281                        0.01      0.01      0.72      0.03         0.01
  1284                        0.01      0.01     25.29      0.01         0.01
  1285                       25.29     25.29     25.36      0.01         0.01
  1288                        1.97      1.97     25.30      0.01         0.01
  1289                        2.19      2.19      3.27      0.01         0.01
  1290                        0.71      0.71     25.35      0.01         0.01
  1291                        0.38      0.38      0.53      0.01         0.01
  1293                        0.64      0.64      0.67      0.35         0.01
  1294                        0.11      0.11      1.18      0.01         0.01
  1297                        0.01      0.01     25.42      0.01         0.01
  1298                        0.01      0.01     25.40      0.01         0.01
  1306                        0.01      0.01     10.53      0.91         0.01
  1307                        0.13      0.13      0.84      0.90         0.01
  1308                        2.74      2.75     16.24      0.49         0.46
  1312                        0.01      0.01      0.01      0.04         0.01
  1314                        0.01      0.01     25.39      0.01         0.01
  1316                        0.01      0.01      0.29      0.01         0.01
  1317                        0.75      0.75      0.80      0.50         0.50
  1328                        0.09      0.09      1.46      0.01         0.01
  136OF                      11.52     11.52     25.38      0.95         0.01
  140OF                       6.67      6.67     11.52      0.97         0.01
  144                         0.01      0.01     25.37      0.01         0.01
  144OF                       0.01      0.01     25.37      0.01         0.01
  158                         0.80      0.80     10.53      0.01         0.01
  158OF                       0.98      0.98     25.38      0.01         0.01
  163OF                       1.07      1.07     25.37      0.01         0.01
  166OF                       0.91      0.91      2.02      0.01         0.01
  1791OF                      0.32      0.32      1.07      0.01         0.01
  179OF                       0.32      0.32      6.67      0.01         0.01
  183OF                       0.01      0.01      1.07      0.01         0.01
  187OF                       0.91      0.91      0.98      0.50         0.50
  200OF                       0.01      0.01     25.28      0.01         0.01
  201OF                       0.01      0.01      0.10      0.01         0.01
  205OF                       0.32      0.32     25.32      0.01         0.01
  209OFA                      0.75      0.75     25.30      0.01         0.01
  229OF                       0.01      0.01      0.66      0.01         0.01
  229OFB                      0.75      0.75      1.02      0.01         0.01
  232OF                       0.91      0.91      0.95      0.19         0.01
  244OF                       0.01      0.01     25.32      0.01         0.01
  257OF                       0.01      0.01     25.39      0.01         0.01
  2601OF                      0.85      0.85      0.85      0.28         0.26
  260OF                       0.85      0.85      0.91      0.01         0.01
  269OF                       0.01      0.01     25.30      0.01         0.01
  276OF                       0.01      0.01      0.95      0.01         0.01
  281OF                       0.85      0.85      0.90      0.35         0.01
  297OF                       0.66      0.66      0.90      0.01         0.01
  306OF                       0.01      0.01      0.90      0.01         0.01
  3084                        0.04      0.04     25.31      0.01         0.01
  3091                        1.20      1.20     25.31      0.01         0.01
  31OF                        0.01      0.01     18.79      0.01         0.01
  3231OF                      0.01      0.01      0.16      0.01         0.01
  323OF                       0.01      0.01      0.66      0.01         0.01
  325OF                       0.01      0.01      0.21      0.01         0.01
  3289                        0.01      0.01      3.27      3.23         0.01
  3349                        0.01      0.01      0.38      0.01         0.01
  3355                        0.01      0.44      0.01      0.45         0.01
  3423                        0.18      0.18      0.22      0.01         0.01
  3424                        0.22      0.22      0.37      0.01         0.01
  348OF                       1.56      1.56     25.32      0.01         0.01
  3510                        0.53      0.53      0.74      0.01         0.01
  3511                        0.72      0.72      0.96      0.01         0.01
  351OF                       1.02      1.02     25.32      0.01         0.01
  3521                        0.11      0.11     25.38      0.31         0.01
  3527                        0.01      0.01     25.44      0.01         0.01
  3656                        0.69      0.69      0.75      0.01         0.01
  3682                        1.13      1.13     25.38      0.01         0.01
  3690                        0.63      0.63      0.71      0.01         0.01
  371OF                       0.01      0.01      0.66      0.01         0.01
  384OF                       1.02      1.02      2.76      0.01         0.01
  3873                        0.01      0.01     25.43      0.01         0.01
  387OF                       0.01      0.01      0.26      0.01         0.01
  4043                        0.01      0.01     25.33      0.01         0.01
  407OF                       0.01      0.01     25.38      0.01         0.01
  4155                        1.18      1.18     25.33      0.01         0.01
  4195                        0.01      0.01      2.54      0.01         0.01
  4202                        0.10      0.10      1.70      0.01         0.01
  4203                        1.18      1.18      2.32      0.01         0.01
  4220                        0.01      0.01      9.09      0.01         0.01
  4232                        1.07      1.07     25.37      0.01         0.01
  5002                        0.01      0.71      0.01      0.79         0.01
  5003                        0.01      0.01      0.22      0.01         0.01
  77OF                        1.49      1.49     14.16      0.01         0.01
  893OF                       0.01      0.01      2.76      0.01         0.01
  9561OF                      0.01      0.01      1.56      0.01         0.01
  974OF                       0.29      0.29      0.90      0.01         0.01
  982OF                       0.21      0.21      0.29      0.01         0.01
  989OF                       0.73      0.73     25.32      0.01         0.01
  CDT-101                     2.06      2.06      2.39      0.46         0.01
  CDT-103                     2.39      2.39      4.28      0.13         0.13
  CDT-105                     2.34      4.28      2.34      5.40         2.34
  CDT-107                     0.45      2.34      0.45      1.93         0.45
  CDT-109                     0.01      0.45      0.01      0.18         0.01
  CDT-11                      0.01      0.12      0.17      0.22         0.01
  CDT-111                     0.76      0.76      2.39      0.01         0.01
  CDT-115                     0.56      0.56      1.27      0.01         0.01
  CDT-117                     1.27      1.27      1.66      1.39         1.27
  CDT-119                     1.53      1.66      1.53      0.19         0.01
  CDT-121                     1.53      1.53      1.72      0.01         0.01
  CDT-123                     1.72      1.72      1.87      1.50         1.50
  CDT-125                     0.01      1.87      0.01      1.69         0.01
  CDT-129                     0.01      0.01      1.72      0.01         0.01
  CDT-13                      0.17      0.17      0.50      0.16         0.01
  CDT-131                     0.01      0.01      1.66      0.01         0.01
  CDT-135                     0.01      0.01      1.60      0.01         0.01
  CDT-137                    24.94     24.94     25.02      0.01         0.01
  CDT-141                    24.82     24.82     24.94      0.01         0.07
  CDT-143                    24.81     24.81     24.82      0.32         1.04
  CDT-147                    24.81     25.23     24.81      0.01         3.77
  CDT-149                    25.23     25.23     25.31      0.01         0.01
  CDT-15                      0.50      0.50      1.44      0.01         0.01
  CDT-151                    25.30     25.30     25.31      1.08         0.08
  CDT-153                    25.25     25.25     25.30      0.01         0.01
  CDT-155                     1.36      1.36     25.25      0.09         0.01
  CDT-157                     1.36      1.36     25.11      0.01         0.01
  CDT-159                     0.01      1.36      0.01      0.01         0.01
  CDT-17                      0.01      0.01      4.25      0.01         0.01
  CDT-19                      4.25      4.25      5.18      0.01         0.01
  CDT-21                      5.18      5.18      7.16      0.10         0.04
  CDT-23                      6.76      6.76     25.25      0.01         0.01
  CDT-25                      0.78      0.78      1.10      0.01         0.01
  CDT-27                      1.10      1.10      5.03      0.01         0.01
  CDT-29                      5.03      5.03      7.92      0.01         0.01
  CDT-31                      6.64      6.85      6.76      0.37         0.16
  CDT-33                      2.40      2.40      3.01      0.77         0.77
  CDT-35                      3.01      3.01      5.14      0.01         0.01
  CDT-37                      5.14      5.14      7.52      0.07         0.07
  CDT-39                      6.72      6.72      6.85      0.18         0.18
  CDT-41                      0.87      0.87      5.34      0.01         0.01
  CDT-43                      3.87      5.34      3.87      4.91         3.51
  CDT-45                      3.87      3.87      6.76      0.32         0.32
  CDT-47                      6.76      6.76      7.19      6.49         6.49
  CDT-49                      6.93      6.96      6.93      1.00         0.87
  CDT-51                      0.97      0.97      1.27      0.01         0.01
  CDT-53                      0.01      1.27      0.01      1.21         0.01
  CDT-55                      0.01      0.01      1.84      0.01         0.01
  CDT-57                      1.84      1.84      2.86      0.37         0.36
  CDT-59                      1.55      2.86      1.55      3.63         1.55
  CDT-63                      0.01      0.01      1.12      0.01         0.01
  CDT-65                      0.01      1.12      0.01      1.26         0.01
  CDT-71                      0.01      0.01     10.59      0.01         0.01
  CDT-73                     10.59     10.59     11.23      2.78         2.78
  CDT-75                      0.01     11.23      0.01     11.11         0.01
  CDT-79                      0.01      0.01     10.59      0.01         0.01
  CDT-85                      1.26      1.26      1.40      0.39         0.39
  CDT-87                      1.40      1.40      1.49      1.19         1.19
  CDT-89                      1.49      1.49      1.57      1.35         1.35
  CDT-91                      1.48      1.57      1.48      0.83         0.67
  CDT-93                      0.01      1.48      0.01      1.40         0.01
  CDT-97                      0.82      0.82      1.74      0.01         0.01
  CDT-99                      1.74      1.74      2.06      1.38         1.38
  
  
  ***************
  Pumping Summary
  ***************
  
  ---------------------------------------------------------------------------------------------------------
                                                  Min       Avg       Max     Total     Power    % Time Off
                        Percent   Number of      Flow      Flow      Flow    Volume     Usage    Pump Curve
  Pump                 Utilized   Start-Ups       CFS       CFS       CFS  10^6 gal     Kw-hr    Low   High
  ---------------------------------------------------------------------------------------------------------
  PUMP-13                 41.54          47      0.00      3.16      3.37     0.903     65.55    0.0    0.0
  PUMP-15                  8.98         145      0.00     11.53     17.50     0.731     91.48    0.0    0.2
  PUMP-17                  4.70         359      0.00      3.37      3.50     0.109      3.10    0.0   77.0
  PUMP-19                 13.12         696      0.00      3.50      3.50     0.323     15.24    0.0   88.6
  PUMP1@1115-351          96.79           1      0.00      0.96      0.96     0.654     11.40    0.0  100.0
  

  Analysis begun on:  Wed Jun 24 17:35:49 2026
  Analysis ended on:  Wed Jun 24 17:35:50 2026
  Total elapsed time: 00:00:01