
  EPA STORM WATER MANAGEMENT MODEL - VERSION 5.2 (Build 5.2.4)
  ------------------------------------------------------------

                         Extranwithsurchargein2footcircularconduits 
                         SWMMCRADAExample1 
  WARNING 04: minimum elevation drop used for Conduit pipe1
  WARNING 04: minimum elevation drop used for Conduit pipe2
  WARNING 04: minimum elevation drop used for Conduit pipe3
  WARNING 04: minimum elevation drop used for Conduit pipe5
  WARNING 04: minimum elevation drop used for Conduit pipe6
  WARNING 04: minimum elevation drop used for Conduit pipe8
  WARNING 04: minimum elevation drop used for Conduit pipe9
  WARNING 04: minimum elevation drop used for Conduit outlet
  
  ****************
  Analysis Options
  ****************
  Flow Units ............... CFS
  Process Models:
    Rainfall/Runoff ........ NO
    RDII ................... NO
    Snowmelt ............... NO
    Groundwater ............ NO
    Flow Routing ........... YES
    Ponding Allowed ........ NO
    Water Quality .......... NO
  Flow Routing Method ...... DYNWAVE
  Surcharge Method ......... EXTRAN
  Starting Date ............ 02/22/2002 00:00:00
  Ending Date .............. 02/22/2002 05:00:00
  Antecedent Dry Days ...... 0.0
  Report Time Step ......... 00:00:10
  Routing Time Step ........ 5.00 sec
  Variable Time Step ....... YES
  Maximum Trials ........... 8
  Number of Threads ........ 1
  Head Tolerance ........... 0.000010 ft
  
  
  **************************        Volume        Volume
  Flow Routing Continuity        acre-feet      10^6 gal
  **************************     ---------     ---------
  Dry Weather Inflow .......         0.000         0.000
  Wet Weather Inflow .......         0.000         0.000
  Groundwater Inflow .......         0.000         0.000
  RDII Inflow ..............         0.000         0.000
  External Inflow ..........       495.824       161.572
  External Outflow .........       482.598       157.262
  Flooding Loss ............         0.000         0.000
  Evaporation Loss .........         0.000         0.000
  Exfiltration Loss ........         0.000         0.000
  Initial Stored Volume ....         0.000         0.000
  Final Stored Volume ......        10.478         3.414
  Continuity Error (%) .....         0.554
  
  
  ***************************
  Time-Step Critical Elements
  ***************************
  Link pipe4 (41.46%)
  Link pipe7 (31.67%)
  Link pipe3 (2.11%)
  Link pipe5 (1.26%)
  
  
  ********************************
  Highest Flow Instability Indexes
  ********************************
  All links are stable.
  
  
  *********************************
  Most Frequent Nonconverging Nodes
  *********************************
  Node Outlet (97.94%)
  Node mid6 (97.47%)
  Node mid4 (97.14%)
  Node mid5 (95.60%)
  Node mid7 (92.84%)
  
  
  *************************
  Routing Time Step Summary
  *************************
  Minimum Time Step           :     0.83 sec
  Average Time Step           :     2.94 sec
  Maximum Time Step           :     5.00 sec
  % of Time in Steady State   :     0.00
  Average Iterations per Step :     8.00
  % of Steps Not Converging   :    97.94
  Time Step Frequencies       :
      5.000 -  0.910 sec      :    99.98 %
      0.910 -  0.166 sec      :     0.02 %
      0.166 -  0.030 sec      :     0.00 %
      0.030 -  0.005 sec      :     0.00 %
      0.005 -  0.001 sec      :     0.00 %
  
  
  ******************
  Node Depth Summary
  ******************
  
  ---------------------------------------------------------------------------------
                                 Average  Maximum  Maximum  Time of Max    Reported
                                   Depth    Depth      HGL   Occurrence   Max Depth
  Node                 Type         Feet     Feet     Feet  days hr:min        Feet
  ---------------------------------------------------------------------------------
  Inflow               JUNCTION     8.15    12.63    92.63     0  00:42       12.51
  mid1                 JUNCTION     7.73    11.91    91.91     0  02:40       11.89
  mid2                 JUNCTION     7.26    10.82    90.82     0  01:44       10.75
  mid3                 JUNCTION     6.62    10.40    90.40     0  02:53       10.32
  mid4                 JUNCTION    74.71    80.32    90.32     0  02:40       80.26
  mid5                 JUNCTION    74.71    80.35    90.35     0  02:40       80.25
  mid6                 JUNCTION    74.70    80.35    90.35     0  02:40       80.32
  mid7                 JUNCTION     6.59    10.52    90.52     0  02:41       10.39
  mid8                 JUNCTION     6.17     9.66    89.66     0  02:11        9.58
  mid9                 JUNCTION     5.70     9.07    89.07     0  02:01        8.83
  Outlet               OUTFALL      5.20     8.32    88.32     0  01:45        8.30
  
  
  *******************
  Node Inflow Summary
  *******************
  
  -------------------------------------------------------------------------------------------------
                                  Maximum  Maximum                  Lateral       Total        Flow
                                  Lateral    Total  Time of Max      Inflow      Inflow     Balance
                                   Inflow   Inflow   Occurrence      Volume      Volume       Error
  Node                 Type           CFS      CFS  days hr:min    10^6 gal    10^6 gal     Percent
  -------------------------------------------------------------------------------------------------
  Inflow               JUNCTION   2000.00  2000.00     0  00:15         162         162       0.032
  mid1                 JUNCTION      0.00  2741.45     0  01:08           0         162       0.037
  mid2                 JUNCTION      0.00  3111.15     0  01:45           0         161      -0.007
  mid3                 JUNCTION      0.00  3113.54     0  01:55           0         161       0.121
  mid4                 JUNCTION      0.00  3036.39     0  01:47           0         161       0.864
  mid5                 JUNCTION      0.00  2993.79     0  00:39           0         160       0.750
  mid6                 JUNCTION      0.00  2997.10     0  00:39           0         159       0.670
  mid7                 JUNCTION      0.00  3005.20     0  00:39           0         158       0.081
  mid8                 JUNCTION      0.00  2997.91     0  01:41           0         158       0.076
  mid9                 JUNCTION      0.00  2860.45     0  00:35           0         157       0.087
  Outlet               OUTFALL       0.00  2750.16     0  01:45           0         157       0.000
  
  
  **********************
  Node Surcharge Summary
  **********************
  
  Surcharging occurs when water rises above the top of the highest conduit.
  ---------------------------------------------------------------------
                                               Max. Height   Min. Depth
                                   Hours       Above Crown    Below Rim
  Node                 Type      Surcharged           Feet         Feet
  ---------------------------------------------------------------------
  mid4                 JUNCTION        4.81         36.316       39.684
  mid5                 JUNCTION        4.81         36.348       39.652
  mid6                 JUNCTION        4.81         36.350       39.650
  
  
  *********************
  Node Flooding Summary
  *********************
  
  No nodes were flooded.
  
  
  ***********************
  Outfall Loading Summary
  ***********************
  
  -----------------------------------------------------------
                         Flow       Avg       Max       Total
                         Freq      Flow      Flow      Volume
  Outfall Node           Pcnt       CFS       CFS    10^6 gal
  -----------------------------------------------------------
  Outlet                96.17   1510.42   2750.16     157.250
  -----------------------------------------------------------
  System                96.17   1510.42   2750.16     157.250
  
  
  ********************
  Link Flow Summary
  ********************
  
  -----------------------------------------------------------------------------
                                 Maximum  Time of Max   Maximum    Max/    Max/
                                  |Flow|   Occurrence   |Veloc|    Full    Full
  Link                 Type          CFS  days hr:min    ft/sec    Flow   Depth
  -----------------------------------------------------------------------------
  pipe1                CONDUIT   2741.45     0  01:08     11.15    0.85    0.27
  pipe2                CONDUIT   3111.15     0  01:45     12.84    0.97    0.26
  pipe3                CONDUIT   3113.54     0  01:55     28.67    0.97    0.24
  pipe4                CONDUIT   3036.39     0  01:47     17.94    0.00    0.62
  pipe5                CONDUIT   2993.79     0  00:39      5.94    0.93    1.00
  pipe6                CONDUIT   2997.10     0  00:39      5.75    0.93    1.00
  pipe7                CONDUIT   3005.20     0  00:39      3.12    0.00    0.62
  pipe8                CONDUIT   2997.91     0  01:41     13.08    0.93    0.22
  pipe9                CONDUIT   2860.45     0  00:35     13.58    0.89    0.21
  outlet               CONDUIT   2750.16     0  01:45     14.73    0.86    0.20
  
  
  ***************************
  Flow Classification Summary
  ***************************
  
  -------------------------------------------------------------------------------------
                      Adjusted    ---------- Fraction of Time in Flow Class ---------- 
                       /Actual         Up    Down  Sub   Sup   Up    Down  Norm  Inlet 
  Conduit               Length    Dry  Dry   Dry   Crit  Crit  Crit  Crit  Ltd   Ctrl  
  -------------------------------------------------------------------------------------
  pipe1                   1.00   0.00  0.00  0.00  1.00  0.00  0.00  0.00  0.04  0.00
  pipe2                   1.00   0.00  0.00  0.00  1.00  0.00  0.00  0.00  0.04  0.00
  pipe3                   1.00   0.00  0.00  0.00  0.98  0.02  0.00  0.00  0.04  0.00
  pipe4                   1.00   0.00  0.00  0.00  0.99  0.01  0.00  0.00  0.04  0.00
  pipe5                   1.00   0.00  0.00  0.00  1.00  0.00  0.00  0.00  0.00  0.00
  pipe6                   1.00   0.00  0.00  0.00  1.00  0.00  0.00  0.00  0.00  0.00
  pipe7                   1.00   0.00  0.04  0.00  0.96  0.00  0.00  0.00  0.00  0.00
  pipe8                   1.00   0.04  0.00  0.00  0.96  0.00  0.00  0.00  0.03  0.00
  pipe9                   1.00   0.04  0.00  0.00  0.95  0.01  0.00  0.00  0.03  0.00
  outlet                  1.00   0.04  0.00  0.00  0.83  0.13  0.00  0.00  0.02  0.00
  
  
  *************************
  Conduit Surcharge Summary
  *************************
  
  ----------------------------------------------------------------------------
                                                           Hours        Hours 
                         --------- Hours Full --------   Above Full   Capacity
  Conduit                Both Ends  Upstream  Dnstream   Normal Flow   Limited
  ----------------------------------------------------------------------------
  pipe4                       0.01      0.01      4.81      0.01         0.01
  pipe5                       4.81      4.81      4.81      0.01         1.64
  pipe6                       4.81      4.81      4.81      0.01         1.63
  pipe7                       0.01      0.01      4.80      0.01         0.01
  

  Analysis begun on:  Wed Jun 24 17:37:17 2026
  Analysis ended on:  Wed Jun 24 17:37:17 2026
  Total elapsed time: < 1 sec