
  EPA STORM WATER MANAGEMENT MODEL - VERSION 5.2 (Build 5.2.4)
  ------------------------------------------------------------

  WARNING 02: maximum depth increased for Node N45
  WARNING 02: maximum depth increased for Node N46
  WARNING 02: maximum depth increased for Node N47
  WARNING 02: maximum depth increased for Node N48
  WARNING 02: maximum depth increased for Node N49
  
  *************
  Element Count
  *************
  Number of rain gages ...... 3
  Number of subcatchments ... 6
  Number of nodes ........... 61
  Number of links ........... 58
  Number of pollutants ...... 0
  Number of land uses ....... 0
  
  
  ****************
  Raingage Summary
  ****************
                                                      Data       Recording
  Name                 Data Source                    Type       Interval 
  ------------------------------------------------------------------------
  G1                   MYSTORM                        INTENSITY    1 min.
  G2                   MYSTORM                        INTENSITY    1 min.
  G3                   MYSTORM                        INTENSITY    1 min.
  
  
  ********************
  Subcatchment Summary
  ********************
  Name                       Area     Width   %Imperv    %Slope Rain Gage            Outlet              
  -----------------------------------------------------------------------------------------------------------
  S1                         1.00    100.00     10.00    1.0000 G1                   N45                 
  S2                         1.00    100.00     10.00    1.0000 G1                   N46                 
  S3                         1.00    100.00     10.00    1.0000 G1                   N28                 
  S4                         1.00    100.00     10.00    1.0000 G1                   N29                 
  S5                         1.00    100.00     10.00    1.0000 G1                   N30                 
  S6                         1.00    100.00     10.00    1.0000 G1                   N31                 


  *******************
  LID Control Summary
  *******************
                                   No. of        Unit        Unit      % Area    % Imperv      % Perv
  Subcatchment     LID Control      Units        Area       Width     Covered     Treated     Treated
  ---------------------------------------------------------------------------------------------------
  S1               RG                  10      100.00       10.00        2.30        1.00        1.00
  S1               RB                  10       12.00        1.00        0.28        1.00        0.00
  S2               RG                  10      100.00       10.00        2.30        1.00        1.00
  S2               RB                  10       12.00        1.00        0.28        1.00        0.00
  S3               RG                  10      100.00       10.00        2.30        1.00        1.00
  S3               RB                  10       12.00        1.00        0.28        1.00        0.00
  S4               RG                  10      100.00       10.00        2.30        1.00        1.00
  S4               RB                  10       12.00        1.00        0.28        1.00        0.00
  S5               RG                  10      100.00       10.00        2.30        1.00        1.00
  S5               RB                  10       12.00        1.00        0.28        1.00        0.00
  S6               RG                  10      100.00       10.00        2.30        1.00        1.00
  S6               RB                  10       12.00        1.00        0.28        1.00        0.00
  
  
  ************
  Node Summary
  ************
                                           Invert      Max.    Ponded    External
  Name                 Type                 Elev.     Depth      Area    Inflow  
  -------------------------------------------------------------------------------
  N1                   JUNCTION            101.60      9.40       0.0    Yes
  N10                  JUNCTION            102.00     18.00       0.0    Yes
  N11                  JUNCTION            102.00     18.00       0.0    Yes
  N12                  JUNCTION            102.00     18.00       0.0    Yes
  N13                  JUNCTION            102.00     18.00       0.0    Yes
  N14                  JUNCTION            102.80     22.20       0.0    Yes
  N15                  JUNCTION            102.80     22.20       0.0    Yes
  N16                  JUNCTION            102.80     22.20       0.0    Yes
  N17                  JUNCTION            102.80     22.20       0.0    Yes
  N18                  JUNCTION            102.80     22.20       0.0    Yes
  N19                  JUNCTION            102.80     22.20       0.0    Yes
  N2                   JUNCTION            111.50     13.50       0.0    Yes
  N20                  JUNCTION            124.60     13.40       0.0    Yes
  N21                  JUNCTION            124.60     13.40       0.0    Yes
  N22                  JUNCTION            124.60     13.40       0.0    Yes
  N23                  JUNCTION            124.60     13.40       0.0    Yes
  N24                  JUNCTION            124.60     13.40       0.0    Yes
  N25                  JUNCTION            124.60     13.40       0.0    Yes
  N26                  JUNCTION            118.30     16.70       0.0    Yes
  N27                  JUNCTION            118.30     16.70       0.0    Yes
  N28                  JUNCTION            118.30     16.70       0.0    Yes
  N29                  JUNCTION            118.30     16.70       0.0    Yes
  N3                   JUNCTION            111.50     13.50       0.0    Yes
  N30                  JUNCTION            118.30     16.70       0.0    Yes
  N31                  JUNCTION            118.30     16.70       0.0    Yes
  N32                  JUNCTION            128.20      8.80       0.0    Yes
  N33                  JUNCTION            128.20      8.80       0.0    Yes
  N34                  JUNCTION            128.20      8.80       0.0    Yes
  N35                  JUNCTION            128.20      8.80       0.0    Yes
  N36                  JUNCTION            128.20      8.80       0.0    Yes
  N37                  JUNCTION            128.20      8.80       0.0    Yes
  N38                  JUNCTION            117.50     12.50       0.0    Yes
  N39                  JUNCTION            117.50     12.50       0.0    Yes
  N4                   JUNCTION            111.50     13.50       0.0    Yes
  N40                  JUNCTION            117.50     12.50       0.0    Yes
  N41                  JUNCTION            117.50     12.50       0.0    Yes
  N42                  JUNCTION            117.50     12.50       0.0    Yes
  N43                  JUNCTION            117.50     12.50       0.0    Yes
  N44                  JUNCTION            112.30     42.70       0.0    Yes
  N45                  JUNCTION            112.30    118.50       0.0    Yes
  N46                  JUNCTION            112.30    118.50       0.0    Yes
  N47                  JUNCTION            112.30    118.50       0.0    Yes
  N48                  JUNCTION            112.30    118.50       0.0    Yes
  N49                  JUNCTION            112.30    118.50       0.0    Yes
  N5                   JUNCTION            111.50     13.50       0.0    Yes
  N50                  JUNCTION            101.60      9.40       0.0    Yes
  N51                  JUNCTION            101.60      9.40       0.0    Yes
  N52                  JUNCTION            101.60      9.40       0.0    Yes
  N53                  JUNCTION            101.60      9.40       0.0    Yes
  N54                  JUNCTION            101.60      9.40       0.0    Yes
  N6                   JUNCTION            111.50     13.50       0.0    Yes
  N7                   JUNCTION            111.50     13.50       0.0    Yes
  N8                   JUNCTION            102.00     18.00       0.0    Yes
  N9                   JUNCTION            102.00     18.00       0.0    Yes
  O1                   OUTFALL              89.90      9.00       0.0
  O2                   OUTFALL              89.90      9.00       0.0
  O3                   OUTFALL              89.90      9.00       0.0
  O4                   OUTFALL              89.90      9.00       0.0
  O5                   OUTFALL              89.90      9.00       0.0
  O6                   OUTFALL              89.90      9.00       0.0
  W1                   STORAGE             112.30     42.70       0.0    Yes
  
  
  ************
  Link Summary
  ************
  Name             From Node        To Node          Type            Length    %Slope Roughness
  ---------------------------------------------------------------------------------------------
  C1               N50              O1               CONDUIT         4500.0    0.2600    0.0160
  C10              N5               N11              CONDUIT          100.0    9.5432    0.0154
  C11              N6               N12              CONDUIT         5000.0    0.1900    0.0154
  C12              N7               N13              CONDUIT         5000.0    0.1900    0.0154
  C13              N8               N14              CONDUIT          500.0   -0.1600    0.0150
  C14              N9               N15              CONDUIT          500.0   -0.1600    0.0150
  C15              N10              N16              CONDUIT          500.0   -0.1600    0.0150
  C16              N11              N17              CONDUIT          500.0   -0.1600    0.0150
  C17              N12              N18              CONDUIT          500.0   -0.1600    0.0150
  C18              N13              N19              CONDUIT          500.0   -0.1600    0.0150
  C19              N45              N14              CONDUIT         5000.0    0.1900    0.0340
  C2               N51              O2               CONDUIT         4500.0    0.2600    0.0160
  C20              N46              N15              CONDUIT         5000.0    0.1900    0.0340
  C21              N47              N16              CONDUIT         5000.0    0.1900    0.0340
  C22              N48              N17              CONDUIT         5000.0    0.1900    0.0340
  C23              W1               N18              CONDUIT         5000.0    0.1900    0.0340
  C24              N49              N19              CONDUIT         5000.0    0.1900    0.0340
  C25              N8               N50              CONDUIT          300.0    0.1333    0.0150
  C26              N9               N51              CONDUIT          300.0    0.1333    0.0150
  C27              N10              N52              CONDUIT          300.0    0.1333    0.0150
  C28              N11              N53              CONDUIT          300.0    0.1333    0.0150
  C29              N12              N54              CONDUIT          300.0    0.1333    0.0150
  C3               N52              O3               CONDUIT         4500.0    0.2600    0.0160
  C30              N13              N1               CONDUIT          300.0    0.1333    0.0150
  C31              N20              N26              CONDUIT         1800.0    0.3500    0.0150
  C32              N21              N27              CONDUIT         1800.0    0.3500    0.0150
  C33              N22              N28              CONDUIT         1800.0    0.3500    0.0150
  C34              N23              N29              CONDUIT         1800.0    0.3500    0.0150
  C35              N24              N30              CONDUIT         1800.0    0.3500    0.0150
  C36              N25              N31              CONDUIT         1800.0    0.3500    0.0150
  C37              N26              N45              CONDUIT         2075.0   -5.2361    0.0150
  C38              N27              N46              CONDUIT         2075.0   -5.2361    0.0150
  C39              N28              N47              CONDUIT         2075.0   -5.2361    0.0150
  C4               N53              O4               CONDUIT         4500.0    0.2600    0.0160
  C40              N29              N48              CONDUIT         2075.0   -5.2361    0.0150
  C41              N30              W1               CONDUIT         2075.0   -5.2361    0.0150
  C42              N31              N49              CONDUIT         2075.0   -5.2361    0.0150
  C43              N32              N38              CONDUIT         5100.0    0.2098    0.0150
  C44              N33              N39              CONDUIT         5100.0    0.2098    0.0150
  C45              N34              N40              CONDUIT         5100.0    0.2098    0.0150
  C46              N35              N41              CONDUIT         5100.0    0.2098    0.0150
  C47              N36              N42              CONDUIT         5100.0    0.2098    0.0150
  C48              N37              N43              CONDUIT         5100.0    0.2098    0.0150
  C49              N38              N2               CONDUIT         3500.0    0.1714    0.0150
  C5               N54              O5               CONDUIT         4500.0    0.2600    0.0160
  C50              N39              N3               CONDUIT         3500.0    0.1714    0.0150
  C51              N40              N4               CONDUIT         3500.0    0.1714    0.0150
  C52              N41              N5               CONDUIT         3500.0    0.1714    0.0150
  C53              N42              N6               CONDUIT         3500.0    0.1714    0.0150
  C54              N43              N7               CONDUIT         3500.0    0.1714    0.0150
  C6               N1               O6               CONDUIT         4500.0    0.2600    0.0160
  C7               N2               N8               CONDUIT         5000.0    0.1900    0.0154
  C8               N3               N9               CONDUIT         5000.0    0.1900    0.0154
  C9               N4               N10              CONDUIT         5000.0    0.1900    0.0154
  P1               N49              N7               TYPE2 PUMP  
  OR1@82309D-82308D W1               N44              ORIFICE     
  ORF1             N47              N4               ORIFICE     
  W1               N48              N5               WEIR        
  
  
  *********************
  Cross Section Summary
  *********************
                                        Full     Full     Hyd.     Max.   No. of     Full
  Conduit          Shape               Depth     Area     Rad.    Width  Barrels     Flow
  ---------------------------------------------------------------------------------------
  C1               TRIANGULAR           9.00   243.00     4.27    54.00        1  1957.32
  C10              CIRCULAR             5.50    23.76     1.38     5.50        1   565.99
  C11              CIRCULAR             5.50    23.76     1.38     5.50        1    79.86
  C12              CIRCULAR             5.50    23.76     1.38     5.50        1    79.86
  C13              CIRCULAR             6.00    28.27     1.50     6.00        1    94.89
  C14              CIRCULAR             6.00    28.27     1.50     6.00        1    94.89
  C15              CIRCULAR             6.00    28.27     1.50     6.00        1    94.89
  C16              CIRCULAR             6.00    28.27     1.50     6.00        1    94.89
  C17              CIRCULAR             6.00    28.27     1.50     6.00        1    94.89
  C18              CIRCULAR             6.00    28.27     1.50     6.00        1    94.89
  C19              CIRCULAR             5.00    19.63     1.25     5.00        1    28.05
  C2               TRIANGULAR           9.00   243.00     4.27    54.00        1  1957.32
  C20              CIRCULAR             5.00    19.63     1.25     5.00        1    28.05
  C21              CIRCULAR             5.00    19.63     1.25     5.00        1    28.05
  C22              CIRCULAR             5.00    19.63     1.25     5.00        1    28.05
  C23              CIRCULAR             5.00    19.63     1.25     5.00        1    28.05
  C24              CIRCULAR             5.00    19.63     1.25     5.00        1    28.05
  C25              TRIANGULAR           9.00   243.00     4.27    54.00        1  1495.11
  C26              TRIANGULAR           9.00   243.00     4.27    54.00        1  1495.11
  C27              TRIANGULAR           9.00   243.00     4.27    54.00        1  1495.11
  C28              TRIANGULAR           9.00   243.00     4.27    54.00        1  1495.11
  C29              TRIANGULAR           9.00   243.00     4.27    54.00        1  1495.11
  C3               TRIANGULAR           9.00   243.00     4.27    54.00        1  1957.32
  C30              TRIANGULAR           9.00   243.00     4.27    54.00        1  1495.11
  C31              CIRCULAR             4.00    12.57     1.00     4.00        1    47.60
  C32              CIRCULAR             4.00    12.57     1.00     4.00        1    47.60
  C33              CIRCULAR             4.00    12.57     1.00     4.00        1    47.60
  C34              CIRCULAR             4.00    12.57     1.00     4.00        1    47.60
  C35              CIRCULAR             4.00    12.57     1.00     4.00        1    47.60
  C36              CIRCULAR             4.00    12.57     1.00     4.00        1    47.60
  C37              CIRCULAR             4.00    12.57     1.00     4.00        1   184.11
  C38              CIRCULAR             4.00    12.57     1.00     4.00        1   184.11
  C39              CIRCULAR             4.00    12.57     1.00     4.00        1   184.11
  C4               TRIANGULAR           9.00   243.00     4.27    54.00        1  1957.32
  C40              CIRCULAR             4.00    12.57     1.00     4.00        1   184.11
  C41              CIRCULAR             4.00    12.57     1.00     4.00        1   184.11
  C42              CIRCULAR             4.00    12.57     1.00     4.00        1   184.11
  C43              CIRCULAR             4.50    15.90     1.12     4.50        1    50.45
  C44              CIRCULAR             4.50    15.90     1.12     4.50        1    50.45
  C45              CIRCULAR             4.50    15.90     1.12     4.50        1    50.45
  C46              CIRCULAR             4.50    15.90     1.12     4.50        1    50.45
  C47              CIRCULAR             4.50    15.90     1.12     4.50        1    50.45
  C48              CIRCULAR             4.50    15.90     1.12     4.50        1    50.45
  C49              CIRCULAR             4.50    15.90     1.12     4.50        1    45.61
  C5               TRIANGULAR           9.00   243.00     4.27    54.00        1  1957.32
  C50              CIRCULAR             4.50    15.90     1.12     4.50        1    45.61
  C51              CIRCULAR             4.50    15.90     1.12     4.50        1    45.61
  C52              CIRCULAR             4.50    15.90     1.12     4.50        1    45.61
  C53              CIRCULAR             4.50    15.90     1.12     4.50        1    45.61
  C54              CIRCULAR             4.50    15.90     1.12     4.50        1    45.61
  C6               TRIANGULAR           9.00   243.00     4.27    54.00        1  1957.32
  C7               CIRCULAR             5.50    23.76     1.38     5.50        1    79.86
  C8               CIRCULAR             5.50    23.76     1.38     5.50        1    79.86
  C9               CIRCULAR             5.50    23.76     1.38     5.50        1    79.86
  
  
  ****************
  Analysis Options
  ****************
  Flow Units ............... MGD
  Process Models:
    Rainfall/Runoff ........ YES
    RDII ................... YES
    Snowmelt ............... NO
    Groundwater ............ NO
    Flow Routing ........... YES
    Ponding Allowed ........ NO
    Water Quality .......... NO
  Infiltration Method ...... GREEN_AMPT
  Flow Routing Method ...... DYNWAVE
  Surcharge Method ......... EXTRAN
  Starting Date ............ 01/01/2020 00:00:00
  Ending Date .............. 01/06/2020 00:00:00
  Antecedent Dry Days ...... 0.0
  Report Time Step ......... 00:01:00
  Wet Time Step ............ 00:01:00
  Dry Time Step ............ 01:00:00
  Routing Time Step ........ 10.00 sec
  Variable Time Step ....... YES
  Maximum Trials ........... 4
  Number of Threads ........ 1
  Head Tolerance ........... 0.005000 ft
  
  
  **********************           Volume        Volume
  Rainfall Dependent I/I        acre-feet      10^6 gal
  **********************        ---------     ---------
  Sewershed Rainfall ......         1.916         0.624
  RDII Produced ...........         0.042         0.014
  RDII Ratio ..............         0.022
  
  
  *********************
  Control Actions Taken
  *********************

  
  **************************        Volume         Depth
  Runoff Quantity Continuity     acre-feet        inches
  **************************     ---------       -------
  Initial LID Storage ......         0.015         0.030
  Total Precipitation ......         2.129         4.259
  Evaporation Loss .........         0.075         0.149
  Infiltration Loss ........         1.740         3.480
  Surface Runoff ...........         0.300         0.601
  Final Storage ............         0.031         0.062
  Continuity Error (%) .....        -0.076
  
  
  **************************        Volume        Volume
  Flow Routing Continuity        acre-feet      10^6 gal
  **************************     ---------     ---------
  Dry Weather Inflow .......         9.943         3.240
  Wet Weather Inflow .......         0.300         0.098
  Groundwater Inflow .......         0.000         0.000
  RDII Inflow ..............         0.042         0.014
  External Inflow ..........       511.240       166.595
  External Outflow .........       347.927       113.377
  Flooding Loss ............       167.892        54.710
  Evaporation Loss .........         0.777         0.253
  Exfiltration Loss ........         0.000         0.000
  Initial Stored Volume ....         1.569         0.511
  Final Stored Volume ......         8.389         2.734
  Continuity Error (%) .....        -0.361
  
  
  *************************
  Highest Continuity Errors
  *************************
  Node N26 (2.07%)
  Node N27 (2.07%)
  Node N30 (2.06%)
  Node N29 (2.06%)
  Node N28 (2.06%)
  
  
  ***************************
  Time-Step Critical Elements
  ***************************
  Link C10 (31.59%)
  
  
  ********************************
  Highest Flow Instability Indexes
  ********************************
  Link OR1@82309D-82308D (96)
  Link C23 (29)
  Link C32 (2)
  Link C31 (2)
  Link C34 (2)
  
  
  *********************************
  Most Frequent Nonconverging Nodes
  *********************************
  Node O1 (1.87%)
  Node O2 (1.87%)
  Node O3 (1.87%)
  Node O4 (1.87%)
  Node O5 (1.87%)
  
  
  *************************
  Routing Time Step Summary
  *************************
  Minimum Time Step           :     0.79 sec
  Average Time Step           :     8.61 sec
  Maximum Time Step           :    10.00 sec
  % of Time in Steady State   :     0.00
  Average Iterations per Step :     2.17
  % of Steps Not Converging   :     1.87
  Time Step Frequencies       :
     10.000 -  5.493 sec      :    93.72 %
      5.493 -  3.017 sec      :     6.27 %
      3.017 -  1.657 sec      :     0.00 %
      1.657 -  0.910 sec      :     0.00 %
      0.910 -  0.500 sec      :     0.00 %
  
  
  ***************************
  Subcatchment Runoff Summary
  ***************************
  
  ------------------------------------------------------------------------------------------------------------------------------
                            Total      Total      Total      Total     Imperv       Perv      Total       Total     Peak  Runoff
                           Precip      Runon       Evap      Infil     Runoff     Runoff     Runoff      Runoff   Runoff   Coeff
  Subcatchment                 in         in         in         in         in         in         in    10^6 gal      MGD
  ------------------------------------------------------------------------------------------------------------------------------
  S1                         4.26       0.00       0.15       3.48       0.39       0.22       0.60        0.02     0.56   0.141
  S2                         4.26       0.00       0.15       3.48       0.39       0.22       0.60        0.02     0.56   0.141
  S3                         4.26       0.00       0.15       3.48       0.39       0.22       0.60        0.02     0.56   0.141
  S4                         4.26       0.00       0.15       3.48       0.39       0.22       0.60        0.02     0.56   0.141
  S5                         4.26       0.00       0.15       3.48       0.39       0.22       0.60        0.02     0.56   0.141
  S6                         4.26       0.00       0.15       3.48       0.39       0.22       0.60        0.02     0.56   0.141
  

  ***********************
  LID Performance Summary
  ***********************

  --------------------------------------------------------------------------------------------------------------------
                                         Total      Evap     Infil   Surface    Drain    Initial     Final  Continuity
                                        Inflow      Loss      Loss   Outflow   Outflow   Storage   Storage       Error
  Subcatchment      LID Control             in        in        in        in        in        in        in           %
  --------------------------------------------------------------------------------------------------------------------
  S1                RG                    4.52      2.93      0.88      0.00      0.00      1.25      1.96       -0.06
  S1                RB                    5.67      0.00      0.00      0.00      0.15      0.48      6.00        0.00
  S2                RG                    4.52      2.93      0.88      0.00      0.00      1.25      1.96       -0.06
  S2                RB                    5.67      0.00      0.00      0.00      0.15      0.48      6.00        0.00
  S3                RG                    4.52      2.93      0.88      0.00      0.00      1.25      1.96       -0.06
  S3                RB                    5.67      0.00      0.00      0.00      0.15      0.48      6.00        0.00
  S4                RG                    4.52      2.93      0.88      0.00      0.00      1.25      1.96       -0.06
  S4                RB                    5.67      0.00      0.00      0.00      0.15      0.48      6.00        0.00
  S5                RG                    4.52      2.93      0.88      0.00      0.00      1.25      1.96       -0.06
  S5                RB                    5.67      0.00      0.00      0.00      0.15      0.48      6.00        0.00
  S6                RG                    4.52      2.93      0.88      0.00      0.00      1.25      1.96       -0.06
  S6                RB                    5.67      0.00      0.00      0.00      0.15      0.48      6.00        0.00
  
  ******************
  Node Depth Summary
  ******************
  
  ---------------------------------------------------------------------------------
                                 Average  Maximum  Maximum  Time of Max    Reported
                                   Depth    Depth      HGL   Occurrence   Max Depth
  Node                 Type         Feet     Feet     Feet  days hr:min        Feet
  ---------------------------------------------------------------------------------
  N1                   JUNCTION     0.68     2.46   104.06     0  03:05        2.46
  N10                  JUNCTION     0.69     2.64   104.64     0  01:39        2.64
  N11                  JUNCTION     0.69     2.63   104.63     0  03:00        2.63
  N12                  JUNCTION     0.69     2.63   104.63     0  03:02        2.63
  N13                  JUNCTION     0.69     2.63   104.63     0  03:02        2.63
  N14                  JUNCTION     0.46     2.33   105.13     0  03:01        2.33
  N15                  JUNCTION     0.46     2.33   105.13     0  03:01        2.33
  N16                  JUNCTION     0.36     2.17   104.97     0  01:40        2.17
  N17                  JUNCTION     0.41     2.24   105.04     0  01:46        2.24
  N18                  JUNCTION     0.46     2.33   105.13     0  03:01        2.33
  N19                  JUNCTION     0.46     2.33   105.13     0  03:01        2.33
  N2                   JUNCTION     0.47     2.31   113.81     0  01:36        2.31
  N20                  JUNCTION    10.52    13.40   138.00     0  00:21       13.40
  N21                  JUNCTION    10.52    13.40   138.00     0  00:21       13.40
  N22                  JUNCTION    10.52    13.40   138.00     0  00:21       13.40
  N23                  JUNCTION    10.52    13.40   138.00     0  00:21       13.40
  N24                  JUNCTION    10.52    13.40   138.00     0  00:21       13.40
  N25                  JUNCTION    10.52    13.40   138.00     0  00:21       13.40
  N26                  JUNCTION    16.65    16.70   135.00     0  00:19       16.70
  N27                  JUNCTION    16.65    16.70   135.00     0  00:19       16.70
  N28                  JUNCTION    16.65    16.70   135.00     0  00:19       16.70
  N29                  JUNCTION    16.65    16.70   135.00     0  00:19       16.70
  N3                   JUNCTION     0.47     2.31   113.81     0  01:36        2.31
  N30                  JUNCTION    16.65    16.70   135.00     0  00:19       16.70
  N31                  JUNCTION    16.65    16.70   135.00     0  00:19       16.70
  N32                  JUNCTION     0.45     2.66   130.86     0  00:32        2.66
  N33                  JUNCTION     0.45     2.66   130.86     0  00:32        2.66
  N34                  JUNCTION     0.45     2.67   130.87     0  00:32        2.67
  N35                  JUNCTION     0.45     2.66   130.86     0  00:32        2.66
  N36                  JUNCTION     0.45     2.66   130.86     0  00:32        2.66
  N37                  JUNCTION     0.45     2.66   130.86     0  00:32        2.66
  N38                  JUNCTION     0.52     2.89   120.39     0  01:01        2.89
  N39                  JUNCTION     0.52     2.89   120.39     0  01:01        2.89
  N4                   JUNCTION     0.55     2.55   114.05     0  01:30        2.55
  N40                  JUNCTION     0.50     2.74   120.24     0  00:59        2.74
  N41                  JUNCTION     0.59     2.98   120.48     0  03:00        2.98
  N42                  JUNCTION     0.52     2.89   120.39     0  01:01        2.89
  N43                  JUNCTION     0.52     2.89   120.39     0  01:01        2.89
  N44                  JUNCTION     0.96     9.14   121.44     0  01:32        7.32
  N45                  JUNCTION     0.93     5.89   118.19     0  03:00        5.89
  N46                  JUNCTION     0.93     5.89   118.19     0  03:00        5.89
  N47                  JUNCTION     0.62     4.40   116.70     0  01:04        4.40
  N48                  JUNCTION     0.78     4.75   117.05     0  01:00        4.75
  N49                  JUNCTION     0.92     5.88   118.18     0  03:00        5.88
  N5                   JUNCTION     0.19     0.89   112.39     0  03:00        0.89
  N50                  JUNCTION     0.68     2.46   104.06     0  03:04        2.46
  N51                  JUNCTION     0.62     2.41   104.01     0  03:05        2.41
  N52                  JUNCTION     0.67     2.47   104.07     0  01:47        2.47
  N53                  JUNCTION     0.68     2.47   104.07     0  03:01        2.47
  N54                  JUNCTION     0.68     2.46   104.06     0  03:04        2.46
  N6                   JUNCTION     0.47     2.31   113.81     0  01:36        2.31
  N7                   JUNCTION     0.47     2.31   113.81     0  01:36        2.31
  N8                   JUNCTION     0.70     2.63   104.63     0  03:02        2.63
  N9                   JUNCTION     0.71     2.63   104.63     0  03:02        2.63
  O1                   OUTFALL      0.56     2.23    92.13     0  03:04        2.23
  O2                   OUTFALL      4.50     4.50    94.40     0  00:00        4.50
  O3                   OUTFALL      0.55     2.24    92.14     0  01:47        2.24
  O4                   OUTFALL      0.56     2.24    92.14     0  03:01        2.24
  O5                   OUTFALL      0.56     2.23    92.13     0  03:04        2.23
  O6                   OUTFALL      0.56     2.23    92.13     0  03:05        2.23
  W1                   STORAGE      0.93     5.85   118.15     0  03:00        5.85
  
  
  *******************
  Node Inflow Summary
  *******************
  
  -------------------------------------------------------------------------------------------------
                                  Maximum  Maximum                  Lateral       Total        Flow
                                  Lateral    Total  Time of Max      Inflow      Inflow     Balance
                                   Inflow   Inflow   Occurrence      Volume      Volume       Error
  Node                 Type           MGD      MGD  days hr:min    10^6 gal    10^6 gal     Percent
  -------------------------------------------------------------------------------------------------
  N1                   JUNCTION     0.029   58.069     0  03:03      0.0602        18.9       0.029
  N10                  JUNCTION     0.029   58.547     0  01:34      0.0602        18.9       0.093
  N11                  JUNCTION     0.029   58.199     0  03:00      0.0602        18.9      -0.010
  N12                  JUNCTION     0.029   58.016     0  03:01      0.0602          19       0.068
  N13                  JUNCTION     0.029   58.068     0  03:01      0.0602        18.9       0.063
  N14                  JUNCTION     0.029   28.982     0  03:00      0.0602         9.4       0.000
  N15                  JUNCTION     0.029   28.980     0  03:00      0.0602         9.4       0.000
  N16                  JUNCTION     0.029   23.604     0  01:21      0.0602        5.69       0.000
  N17                  JUNCTION     0.029   26.065     0  01:10      0.0602        7.46       0.000
  N18                  JUNCTION     0.029   28.925     0  03:00      0.0602         9.5       0.000
  N19                  JUNCTION     0.029   28.974     0  03:00      0.0602        9.39       0.000
  N2                   JUNCTION     0.029   29.747     0  01:14      0.0602        9.44       0.058
  N20                  JUNCTION    29.093   29.109     0  00:19        9.31        9.32       0.825
  N21                  JUNCTION    29.093   29.109     0  00:19        9.31        9.32       0.825
  N22                  JUNCTION    29.093   29.109     0  00:19        9.31        9.32       0.825
  N23                  JUNCTION    29.093   29.109     0  00:19        9.31        9.32       0.825
  N24                  JUNCTION    29.093   29.109     0  00:19        9.31        9.32       0.825
  N25                  JUNCTION    29.093   29.109     0  00:19        9.31        9.32       0.825
  N26                  JUNCTION     0.029   29.114     0  00:23      0.0602        9.29       2.111
  N27                  JUNCTION     0.029   29.114     0  00:23      0.0602        9.29       2.111
  N28                  JUNCTION     0.566   29.432     0  00:49      0.0766        9.31       2.107
  N29                  JUNCTION     0.566   29.432     0  00:49      0.0766        9.31       2.107
  N3                   JUNCTION     0.029   29.749     0  01:14      0.0602        9.44       0.062
  N30                  JUNCTION     0.566   29.432     0  00:49      0.0766        9.31       2.107
  N31                  JUNCTION     0.566   29.432     0  00:49      0.0766        9.31       2.107
  N32                  JUNCTION    29.093   29.093     0  00:59        9.31        9.31      -0.187
  N33                  JUNCTION    29.093   29.093     0  00:59        9.31        9.31      -0.187
  N34                  JUNCTION    29.093   29.093     0  00:59        9.31        9.31      -0.188
  N35                  JUNCTION    29.093   29.093     0  00:59        9.31        9.31      -0.202
  N36                  JUNCTION    29.093   29.093     0  00:59        9.31        9.31      -0.187
  N37                  JUNCTION    29.093   29.093     0  00:59        9.31        9.31      -0.187
  N38                  JUNCTION     0.029   31.325     0  00:40      0.0602        9.39       0.113
  N39                  JUNCTION     0.029   31.325     0  00:40      0.0602        9.39       0.113
  N4                   JUNCTION     0.029   35.372     0  01:09      0.0602        13.1      -0.045
  N40                  JUNCTION     0.029   31.135     0  00:42      0.0602        9.39       0.179
  N41                  JUNCTION     0.029   31.264     0  00:41      0.0602        9.39       0.256
  N42                  JUNCTION     0.029   31.326     0  00:40      0.0602        9.39       0.114
  N43                  JUNCTION     0.029   31.325     0  00:40      0.0602        9.39       0.113
  N44                  JUNCTION     0.029    7.837     0  15:46      0.0602        0.12       0.000
  N45                  JUNCTION    29.424   29.424     0  00:49        9.33        9.33      -0.128
  N46                  JUNCTION    29.424   29.424     0  00:49        9.33        9.33      -0.128
  N47                  JUNCTION    29.093   29.093     0  00:59        9.31        9.31      -0.200
  N48                  JUNCTION    29.093   29.093     0  00:59        9.31        9.31      -0.153
  N49                  JUNCTION    29.093   29.093     0  00:59        9.31        9.31      -0.128
  N5                   JUNCTION     0.029   32.198     0  03:00      0.0602        11.4      -0.004
  N50                  JUNCTION     0.029   58.077     0  03:02      0.0602        18.9       0.029
  N51                  JUNCTION     0.029   58.075     0  03:03      0.0602        18.9       0.140
  N52                  JUNCTION     0.029   58.525     0  01:38      0.0602        18.9       0.029
  N53                  JUNCTION     0.029   58.203     0  03:00      0.0602        18.9       0.029
  N54                  JUNCTION     0.029   58.016     0  03:02      0.0602          19       0.029
  N6                   JUNCTION     0.029   29.740     0  01:14      0.0602        9.44       0.045
  N7                   JUNCTION     0.029   29.747     0  01:14      0.0602        9.44       0.058
  N8                   JUNCTION     0.029   58.077     0  03:01      0.0602        18.9       0.063
  N9                   JUNCTION     0.029   58.074     0  03:01      0.0602        18.9       0.057
  O1                   OUTFALL      0.000   58.044     0  03:04           0        18.9       0.000
  O2                   OUTFALL      0.000   58.028     0  03:05           0        18.8       0.000
  O3                   OUTFALL      0.000   58.445     0  01:47           0        18.9       0.000
  O4                   OUTFALL      0.000   58.178     0  03:01           0        18.9       0.000
  O5                   OUTFALL      0.000   57.980     0  03:04           0          19       0.000
  O6                   OUTFALL      0.000   58.035     0  03:05           0        18.9       0.000
  W1                   STORAGE     29.084   33.583     0  00:14        9.25        9.37      -1.428
  
  
  **********************
  Node Surcharge Summary
  **********************
  
  Surcharging occurs when water rises above the top of the highest conduit.
  ---------------------------------------------------------------------
                                               Max. Height   Min. Depth
                                   Hours       Above Crown    Below Rim
  Node                 Type      Surcharged           Feet         Feet
  ---------------------------------------------------------------------
  N20                  JUNCTION      119.65          9.400        0.000
  N21                  JUNCTION      119.65          9.400        0.000
  N22                  JUNCTION      119.65          9.400        0.000
  N23                  JUNCTION      119.65          9.400        0.000
  N24                  JUNCTION      119.65          9.400        0.000
  N25                  JUNCTION      119.65          9.400        0.000
  N26                  JUNCTION      119.68         12.700        0.000
  N27                  JUNCTION      119.68         12.700        0.000
  N28                  JUNCTION      119.68         12.700        0.000
  N29                  JUNCTION      119.68         12.700        0.000
  N30                  JUNCTION      119.68         12.700        0.000
  N31                  JUNCTION      119.68         12.700        0.000
  N44                  JUNCTION       23.81          7.143       33.557
  
  
  *********************
  Node Flooding Summary
  *********************
  
  Flooding refers to all water that overflows a node, whether it ponds or not.
  --------------------------------------------------------------------------
                                                             Total   Maximum
                                 Maximum   Time of Max       Flood    Ponded
                        Hours       Rate    Occurrence      Volume     Depth
  Node                 Flooded       MGD   days hr:min    10^6 gal      Feet
  --------------------------------------------------------------------------
  N20                     0.03    28.812      0  00:21       0.014     0.000
  N21                     0.03    28.812      0  00:21       0.014     0.000
  N22                     0.03    28.812      0  00:21       0.014     0.000
  N23                     0.03    28.812      0  00:21       0.014     0.000
  N24                     0.03    28.812      0  00:21       0.014     0.000
  N25                     0.03    28.812      0  00:21       0.014     0.000
  N26                   119.13    29.108      0  00:23       9.093     0.000
  N27                   119.13    29.108      0  00:23       9.093     0.000
  N28                   119.13    29.431      0  00:49       9.110     0.000
  N29                   119.13    29.431      0  00:49       9.110     0.000
  N30                   119.13    29.431      0  00:49       9.110     0.000
  N31                   119.13    29.431      0  00:49       9.110     0.000
  
  
  **********************
  Storage Volume Summary
  **********************
  
  ------------------------------------------------------------------------------------------------
                         Average    Avg   Evap  Exfil     Maximum    Max    Time of Max    Maximum
                          Volume   Pcnt   Pcnt   Pcnt      Volume   Pcnt     Occurrence    Outflow
  Storage Unit          1000 ftł   Full   Loss   Loss    1000 ftł   Full    days hr:min        MGD
  ------------------------------------------------------------------------------------------------
  W1                       0.741    2.2    0.0    0.0       4.678   13.7       0  03:00     28.920
  
  
  ***********************
  Outfall Loading Summary
  ***********************
  
  -----------------------------------------------------------
                         Flow       Avg       Max       Total
                         Freq      Flow      Flow      Volume
  Outfall Node           Pcnt       MGD       MGD    10^6 gal
  -----------------------------------------------------------
  O1                    99.78     6.437    58.044      18.905
  O2                    99.43     6.392    58.028      18.783
  O3                    99.79     6.451    58.445      18.890
  O4                    99.87     6.511    58.178      18.895
  O5                    99.78     6.461    57.980      19.006
  O6                    99.78     6.433    58.035      18.889
  -----------------------------------------------------------
  System                99.74    38.686   348.430     113.369
  
  
  ********************
  Link Flow Summary
  ********************
  
  -----------------------------------------------------------------------------
                                 Maximum  Time of Max   Maximum    Max/    Max/
                                  |Flow|   Occurrence   |Veloc|    Full    Full
  Link                 Type          MGD  days hr:min    ft/sec    Flow   Depth
  -----------------------------------------------------------------------------
  C1                   CONDUIT    58.044     0  03:04      5.43    0.03    0.26
  C10                  CONDUIT    32.198     0  03:00      7.59    0.06    0.32
  C11                  CONDUIT    29.395     0  01:36      4.41    0.37    0.45
  C12                  CONDUIT    29.398     0  01:36      4.41    0.37    0.45
  C13                  CONDUIT    28.973     0  03:01      4.58    0.31    0.41
  C14                  CONDUIT    28.971     0  03:01      4.56    0.31    0.41
  C15                  CONDUIT    23.551     0  01:42      3.51    0.25    0.40
  C16                  CONDUIT    26.015     0  01:30      3.74    0.27    0.41
  C17                  CONDUIT    28.913     0  03:01      4.47    0.30    0.41
  C18                  CONDUIT    28.965     0  03:01      4.58    0.31    0.41
  C19                  CONDUIT    28.976     0  03:00      2.91    1.03    0.73
  C2                   CONDUIT    58.028     0  03:05      2.51    0.03    0.38
  C20                  CONDUIT    28.974     0  03:00      2.91    1.03    0.73
  C21                  CONDUIT    23.600     0  01:21      2.69    0.84    0.65
  C22                  CONDUIT    26.061     0  01:10      2.76    0.93    0.70
  C23                  CONDUIT    28.920     0  03:00      2.90    1.03    0.73
  C24                  CONDUIT    28.969     0  03:00      2.90    1.03    0.73
  C25                  CONDUIT    58.072     0  03:02      5.22    0.04    0.28
  C26                  CONDUIT    58.069     0  03:03      6.81    0.04    0.28
  C27                  CONDUIT    58.521     0  01:38      5.22    0.04    0.28
  C28                  CONDUIT    58.198     0  03:00      4.87    0.04    0.28
  C29                  CONDUIT    58.010     0  03:02      5.22    0.04    0.28
  C3                   CONDUIT    58.445     0  01:47      5.44    0.03    0.26
  C30                  CONDUIT    58.063     0  03:03      5.22    0.04    0.28
  C31                  CONDUIT    29.106     0  00:23      6.37    0.61    1.00
  C32                  CONDUIT    29.106     0  00:23      6.37    0.61    1.00
  C33                  CONDUIT    29.106     0  00:23      6.37    0.61    1.00
  C34                  CONDUIT    29.106     0  00:23      6.37    0.61    1.00
  C35                  CONDUIT    29.106     0  00:23      6.37    0.61    1.00
  C36                  CONDUIT    29.106     0  00:23      6.37    0.61    1.00
  C37                  CONDUIT     0.000     0  00:00      0.00    0.00    0.50
  C38                  CONDUIT     0.000     0  00:00      0.00    0.00    0.50
  C39                  CONDUIT     0.000     0  00:00      0.00    0.00    0.50
  C4                   CONDUIT    58.178     0  03:01      5.43    0.03    0.26
  C40                  CONDUIT     0.000     0  00:00      0.00    0.00    0.50
  C41                  CONDUIT     0.000     0  00:00      0.00    0.00    0.50
  C42                  CONDUIT     0.000     0  00:00      0.00    0.00    0.50
  C43                  CONDUIT    31.317     0  00:40      6.32    0.62    0.59
  C44                  CONDUIT    31.317     0  00:40      6.32    0.62    0.59
  C45                  CONDUIT    31.127     0  00:42      6.41    0.62    0.58
  C46                  CONDUIT    31.256     0  00:41      6.36    0.62    0.60
  C47                  CONDUIT    31.318     0  00:40      6.32    0.62    0.59
  C48                  CONDUIT    31.317     0  00:40      6.32    0.62    0.59
  C49                  CONDUIT    29.743     0  01:14      5.45    0.65    0.57
  C5                   CONDUIT    57.980     0  03:04      5.42    0.03    0.26
  C50                  CONDUIT    29.745     0  01:14      5.45    0.65    0.57
  C51                  CONDUIT    29.695     0  01:11      4.82    0.65    0.58
  C52                  CONDUIT    29.094     0  03:00      6.88    0.64    0.43
  C53                  CONDUIT    29.736     0  01:14      5.43    0.65    0.57
  C54                  CONDUIT    29.743     0  01:14      5.45    0.65    0.57
  C6                   CONDUIT    58.035     0  03:05      5.43    0.03    0.26
  C7                   CONDUIT    29.398     0  01:36      4.41    0.37    0.45
  C8                   CONDUIT    29.399     0  01:36      4.41    0.37    0.45
  C9                   CONDUIT    35.018     0  01:30      4.92    0.44    0.47
  P1                   PUMP        0.000     0  00:00              0.00
  OR1@82309D-82308D    ORIFICE    10.362     0  15:46                      1.00
  ORF1                 ORIFICE     6.210     0  00:31                          
  W1                   WEIR        3.107     0  01:00                      1.00
  
  
  ***************************
  Flow Classification Summary
  ***************************
  
  -------------------------------------------------------------------------------------
                      Adjusted    ---------- Fraction of Time in Flow Class ---------- 
                       /Actual         Up    Down  Sub   Sup   Up    Down  Norm  Inlet 
  Conduit               Length    Dry  Dry   Dry   Crit  Crit  Crit  Crit  Ltd   Ctrl  
  -------------------------------------------------------------------------------------
  C1                      1.00   0.00  0.00  0.00  1.00  0.00  0.00  0.00  0.00  0.00
  C10                     1.00   0.00  0.00  0.00  0.97  0.03  0.00  0.00  1.00  0.00
  C11                     1.00   0.00  0.00  0.00  1.00  0.00  0.00  0.00  1.00  0.00
  C12                     1.00   0.00  0.00  0.00  1.00  0.00  0.00  0.00  1.00  0.00
  C13                     1.00   0.00  0.00  0.00  1.00  0.00  0.00  0.00  0.97  0.00
  C14                     1.00   0.00  0.00  0.00  1.00  0.00  0.00  0.00  0.97  0.00
  C15                     1.00   0.00  0.00  0.00  1.00  0.00  0.00  0.00  0.80  0.00
  C16                     1.00   0.00  0.00  0.00  1.00  0.00  0.00  0.00  0.97  0.00
  C17                     1.00   0.00  0.00  0.00  1.00  0.00  0.00  0.00  0.97  0.00
  C18                     1.00   0.00  0.00  0.00  1.00  0.00  0.00  0.00  0.97  0.00
  C19                     1.00   0.00  0.00  0.00  1.00  0.00  0.00  0.00  0.00  0.00
  C2                      1.00   0.00  0.00  0.00  1.00  0.00  0.00  0.00  1.00  0.00
  C20                     1.00   0.00  0.00  0.00  1.00  0.00  0.00  0.00  0.00  0.00
  C21                     1.00   0.00  0.00  0.00  1.00  0.00  0.00  0.00  0.80  0.00
  C22                     1.00   0.00  0.00  0.00  1.00  0.00  0.00  0.00  0.02  0.00
  C23                     1.00   0.00  0.00  0.00  1.00  0.00  0.00  0.00  0.00  0.00
  C24                     1.00   0.00  0.00  0.00  1.00  0.00  0.00  0.00  0.00  0.00
  C25                     1.00   0.00  0.00  0.00  1.00  0.00  0.00  0.00  0.80  0.00
  C26                     1.00   0.00  0.00  0.00  1.00  0.00  0.00  0.00  0.07  0.00
  C27                     1.00   0.00  0.00  0.00  1.00  0.00  0.00  0.00  0.80  0.00
  C28                     1.00   0.00  0.00  0.00  1.00  0.00  0.00  0.00  0.80  0.00
  C29                     1.00   0.00  0.00  0.00  1.00  0.00  0.00  0.00  0.80  0.00
  C3                      1.00   0.00  0.00  0.00  1.00  0.00  0.00  0.00  0.00  0.00
  C30                     1.00   0.00  0.00  0.00  1.00  0.00  0.00  0.00  0.80  0.00
  C31                     1.00   0.00  0.00  0.00  1.00  0.00  0.00  0.00  0.00  0.00
  C32                     1.00   0.00  0.00  0.00  1.00  0.00  0.00  0.00  0.00  0.00
  C33                     1.00   0.00  0.00  0.00  1.00  0.00  0.00  0.00  0.00  0.00
  C34                     1.00   0.00  0.00  0.00  1.00  0.00  0.00  0.00  0.00  0.00
  C35                     1.00   0.00  0.00  0.00  1.00  0.00  0.00  0.00  0.00  0.00
  C36                     1.00   0.00  0.00  0.00  1.00  0.00  0.00  0.00  0.00  0.00
  C37                     1.00   0.00  1.00  0.00  0.00  0.00  0.00  0.00  0.00  0.00
  C38                     1.00   0.00  1.00  0.00  0.00  0.00  0.00  0.00  0.00  0.00
  C39                     1.00   0.00  1.00  0.00  0.00  0.00  0.00  0.00  0.00  0.00
  C4                      1.00   0.00  0.00  0.00  1.00  0.00  0.00  0.00  0.00  0.00
  C40                     1.00   0.00  1.00  0.00  0.00  0.00  0.00  0.00  0.00  0.00
  C41                     1.00   0.00  1.00  0.00  0.00  0.00  0.00  0.00  0.00  0.00
  C42                     1.00   0.00  1.00  0.00  0.00  0.00  0.00  0.00  0.00  0.00
  C43                     1.00   0.00  0.00  0.00  1.00  0.00  0.00  0.00  0.99  0.00
  C44                     1.00   0.00  0.00  0.00  1.00  0.00  0.00  0.00  0.99  0.00
  C45                     1.00   0.00  0.00  0.00  1.00  0.00  0.00  0.00  0.99  0.00
  C46                     1.00   0.00  0.00  0.00  1.00  0.00  0.00  0.00  0.99  0.00
  C47                     1.00   0.00  0.00  0.00  1.00  0.00  0.00  0.00  0.99  0.00
  C48                     1.00   0.00  0.00  0.00  1.00  0.00  0.00  0.00  0.99  0.00
  C49                     1.00   0.00  0.00  0.00  1.00  0.00  0.00  0.00  0.81  0.00
  C5                      1.00   0.00  0.00  0.00  1.00  0.00  0.00  0.00  0.00  0.00
  C50                     1.00   0.00  0.00  0.00  1.00  0.00  0.00  0.00  0.81  0.00
  C51                     1.00   0.00  0.00  0.00  1.00  0.00  0.00  0.00  0.98  0.00
  C52                     1.00   0.00  0.00  0.00  0.80  0.20  0.00  0.00  0.00  0.00
  C53                     1.00   0.00  0.00  0.00  1.00  0.00  0.00  0.00  0.81  0.00
  C54                     1.00   0.00  0.00  0.00  1.00  0.00  0.00  0.00  0.81  0.00
  C6                      1.00   0.00  0.00  0.00  1.00  0.00  0.00  0.00  0.00  0.00
  C7                      1.00   0.00  0.00  0.00  1.00  0.00  0.00  0.00  1.00  0.00
  C8                      1.00   0.00  0.00  0.00  1.00  0.00  0.00  0.00  1.00  0.00
  C9                      1.00   0.00  0.00  0.00  1.00  0.00  0.00  0.00  0.99  0.00
  
  
  *************************
  Conduit Surcharge Summary
  *************************
  
  ----------------------------------------------------------------------------
                                                           Hours        Hours 
                         --------- Hours Full --------   Above Full   Capacity
  Conduit                Both Ends  Upstream  Dnstream   Normal Flow   Limited
  ----------------------------------------------------------------------------
  C19                         0.01      2.48      0.01      2.13         0.01
  C20                         0.01      2.48      0.01      2.15         0.01
  C23                         0.01      2.42      0.01      2.05         0.01
  C24                         0.01      2.47      0.01      2.11         0.01
  C31                       119.65    119.65    119.68      0.01         0.01
  C32                       119.65    119.65    119.68      0.01         0.01
  C33                       119.65    119.65    119.68      0.01         0.01
  C34                       119.65    119.65    119.68      0.01         0.01
  C35                       119.65    119.65    119.68      0.01         0.01
  C36                       119.65    119.65    119.68      0.01         0.01
  
  
  ***************
  Pumping Summary
  ***************
  
  ---------------------------------------------------------------------------------------------------------
                                                  Min       Avg       Max     Total     Power    % Time Off
                        Percent   Number of      Flow      Flow      Flow    Volume     Usage    Pump Curve
  Pump                 Utilized   Start-Ups       MGD       MGD       MGD  10^6 gal     Kw-hr    Low   High
  ---------------------------------------------------------------------------------------------------------
  P1                       0.00           0      0.00      0.00      0.00     0.000      0.00    0.0    0.0
  

  Analysis begun on:  Wed Jun 24 17:37:13 2026
  Analysis ended on:  Wed Jun 24 17:37:14 2026
  Total elapsed time: 00:00:01