
  EPA STORM WATER MANAGEMENT MODEL - VERSION 5.2 (Build 5.2.4)
  ------------------------------------------------------------

  
  *************
  Element Count
  *************
  Number of rain gages ...... 2
  Number of subcatchments ... 8
  Number of nodes ........... 4
  Number of links ........... 0
  Number of pollutants ...... 0
  Number of land uses ....... 0
  
  
  ****************
  Raingage Summary
  ****************
                                                      Data       Recording
  Name                 Data Source                    Type       Interval 
  ------------------------------------------------------------------------
  RG_Clay              Rain1                          VOLUME      60 min.
  RG_Sand              Rain1                          VOLUME      60 min.
  
  
  ********************
  Subcatchment Summary
  ********************
  Name                       Area     Width   %Imperv    %Slope Rain Gage            Outlet              
  -----------------------------------------------------------------------------------------------------------
  Turf_Clay_Roof             0.01     22.65    100.00    0.0100 RG_Clay              Turf_Clay_LID       
  Prarie_Clay_Roof           0.01     22.65    100.00    0.0100 RG_Clay              Prarie_Clay_LID     
  Turf_Sand_Roof             0.04     39.24    100.00   15.0000 RG_Sand              Turf_Sand_LID       
  Prarie_Sand_Roof           0.01     39.24    100.00   15.0000 RG_Sand              Prarie_Sand_LID     
  Turf_Sand_LID              0.00     10.00      0.00    0.0000 RG_Sand              Turf_Sand_Outlet    
  Prarie_Sand_LID            0.00     10.00      0.00    0.0000 RG_Sand              Prarie_Sand_Outlet  
  Turf_Clay_LID              0.01     18.81      0.00    0.0000 RG_Clay              Turf_Clay_Outlet    
  Prarie_Clay_LID            0.01     20.07      0.00    0.0000 RG_Clay              Prarie_Clay_Outlet  


  *******************
  LID Control Summary
  *******************
                                   No. of        Unit        Unit      % Area    % Imperv      % Perv
  Subcatchment     LID Control      Units        Area       Width     Covered     Treated     Treated
  ---------------------------------------------------------------------------------------------------
  Turf_Sand_LID    Turf_Sand            1       99.99        0.00       99.99        0.00        0.00
  Prarie_Sand_LID  Prarie_Sand          1       99.98        0.00       99.98        0.00        0.00
  Turf_Clay_LID    Turf_Clay            1      353.99       18.81       99.99        0.00        0.00
  Prarie_Clay_LID  Prarie_Clay          1      402.99       20.07       99.99        0.00        0.00
  
  
  ************
  Node Summary
  ************
                                           Invert      Max.    Ponded    External
  Name                 Type                 Elev.     Depth      Area    Inflow  
  -------------------------------------------------------------------------------
  Turf_Clay_Outlet     OUTFALL               0.00      0.00       0.0
  Prarie_Clay_Outlet   OUTFALL               0.00      0.00       0.0
  Turf_Sand_Outlet     OUTFALL               0.00      0.00       0.0
  Prarie_Sand_Outlet   OUTFALL               0.00      0.00       0.0
  
  
  ****************
  Analysis Options
  ****************
  Flow Units ............... CFS
  Process Models:
    Rainfall/Runoff ........ YES
    RDII ................... NO
    Snowmelt ............... NO
    Groundwater ............ NO
    Flow Routing ........... NO
    Water Quality .......... NO
  Infiltration Method ...... GREEN_AMPT
  Surcharge Method ......... EXTRAN
  Starting Date ............ 05/01/2004 00:00:00
  Ending Date .............. 05/11/2004 23:59:00
  Antecedent Dry Days ...... 0.0
  Report Time Step ......... 00:05:00
  Wet Time Step ............ 00:01:00
  Dry Time Step ............ 00:01:00
  
  
  **************************        Volume         Depth
  Runoff Quantity Continuity     acre-feet        inches
  **************************     ---------       -------
  Initial LID Storage ......         0.002         0.200
  Total Precipitation ......         0.054         7.000
  Evaporation Loss .........         0.000         0.000
  Infiltration Loss ........         0.020         2.602
  Surface Runoff ...........         0.033         4.235
  Final Storage ............         0.003         0.374
  Continuity Error (%) .....        -0.153
  
  
  **************************        Volume        Volume
  Flow Routing Continuity        acre-feet      10^6 gal
  **************************     ---------     ---------
  Dry Weather Inflow .......         0.000         0.000
  Wet Weather Inflow .......         0.033         0.011
  Groundwater Inflow .......         0.000         0.000
  RDII Inflow ..............         0.000         0.000
  External Inflow ..........         0.000         0.000
  External Outflow .........         0.033         0.011
  Flooding Loss ............         0.000         0.000
  Evaporation Loss .........         0.000         0.000
  Exfiltration Loss ........         0.000         0.000
  Initial Stored Volume ....         0.000         0.000
  Final Stored Volume ......         0.000         0.000
  Continuity Error (%) .....         0.000
  
  
  ***************************
  Subcatchment Runoff Summary
  ***************************
  
  ------------------------------------------------------------------------------------------------------------------------------
                            Total      Total      Total      Total     Imperv       Perv      Total       Total     Peak  Runoff
                           Precip      Runon       Evap      Infil     Runoff     Runoff     Runoff      Runoff   Runoff   Coeff
  Subcatchment                 in         in         in         in         in         in         in    10^6 gal      CFS
  ------------------------------------------------------------------------------------------------------------------------------
  Turf_Clay_Roof             7.00       0.00       0.00       0.00       6.99       0.00       6.99        0.00     0.01   0.999
  Prarie_Clay_Roof           7.00       0.00       0.00       0.00       6.99       0.00       6.99        0.00     0.01   0.999
  Turf_Sand_Roof             7.00       0.00       0.00       0.00       7.00       0.00       7.00        0.01     0.04   0.999
  Prarie_Sand_Roof           7.00       0.00       0.00       0.00       7.00       0.00       7.00        0.00     0.01   1.000
  Turf_Sand_LID              7.00     107.74       0.00      27.03       0.00       0.00      87.49        0.01     0.03   0.762
  Prarie_Sand_LID            7.00      35.97       0.00      25.36       0.00       0.00      17.23        0.00     0.01   0.401
  Turf_Clay_LID              7.00      10.13       0.00       6.89       0.00       0.00       8.91        0.00     0.01   0.520
  Prarie_Clay_LID            7.00       8.90       0.00       7.01       0.00       0.00       8.61        0.00     0.01   0.542
  

  ***********************
  LID Performance Summary
  ***********************

  --------------------------------------------------------------------------------------------------------------------
                                         Total      Evap     Infil   Surface    Drain    Initial     Final  Continuity
                                        Inflow      Loss      Loss   Outflow   Outflow   Storage   Storage       Error
  Subcatchment      LID Control             in        in        in        in        in        in        in           %
  --------------------------------------------------------------------------------------------------------------------
  Turf_Sand_LID     Turf_Sand           114.74      0.00     27.03     87.50      0.00      0.55      0.80       -0.04
  Prarie_Sand_LID   Prarie_Sand          42.97      0.00     25.37     17.24      0.00      1.20      1.70       -0.31
  Turf_Clay_LID     Turf_Clay            17.13      0.00      6.89      8.91      0.00      0.70      2.05       -0.11
  Prarie_Clay_LID   Prarie_Clay          15.90      0.00      7.01      8.61      0.00      0.95      1.25       -0.12

  Analysis begun on:  Wed Jun 24 17:35:55 2026
  Analysis ended on:  Wed Jun 24 17:35:55 2026
  Total elapsed time: < 1 sec