
  EPA STORM WATER MANAGEMENT MODEL - VERSION 5.2 (Build 5.2.4)
  ------------------------------------------------------------

  Scenario Run :  WRONG_INTERVAL 
   SW 1 0 9A1 'BROWARD COUNTY Multi FAMILY SITE - Runoff example # 47'A2 'RUNO 
  WARNING 01: wet weather time step reduced to recording interval for Rain Gage GAGE1
  WARNING 03: negative offset ignored for Link CDT-11
  
  ****************
  Analysis Options
  ****************
  Flow Units ............... MGD
  Process Models:
    Rainfall/Runoff ........ YES
    RDII ................... YES
    Snowmelt ............... NO
    Groundwater ............ YES
    Flow Routing ........... YES
    Ponding Allowed ........ NO
    Water Quality .......... YES
  Infiltration Method ...... GREEN_AMPT
  Flow Routing Method ...... DYNWAVE
  Surcharge Method ......... EXTRAN
  Starting Date ............ 01/01/2008 00:00:00
  Ending Date .............. 06/30/2008 00:00:00
  Antecedent Dry Days ...... 0.0
  Report Time Step ......... 00:15:00
  Wet Time Step ............ 00:05:00
  Dry Time Step ............ 00:15:00
  Routing Time Step ........ 60.00 sec
  Variable Time Step ....... YES
  Maximum Trials ........... 8
  Number of Threads ........ 1
  Head Tolerance ........... 0.005000 ft
  
  
  *********************
  Rainfall File Summary
  *********************
  Station    First        Last         Recording   Periods    Periods    Periods
  ID         Date         Date         Frequency  w/Precip    Missing    Malfunc.
  -------------------------------------------------------------------------------
  RG02       01/01/2008   06/30/2008      15 min     52416          0          0

  
  
  **************************        Volume         Depth
  Runoff Quantity Continuity     acre-feet        inches
  **************************     ---------       -------
  Total Precipitation ......         0.000         0.000
  Evaporation Loss .........         0.000         0.000
  Infiltration Loss ........         0.000         0.000
  Surface Runoff ...........         0.000         0.000
  Final Storage ............         0.000         0.000
  Continuity Error (%) .....         0.000
  
  
  **************************           TSS            TP
  Runoff Quality Continuity            lbs           lbs
  **************************    ----------    ----------
  Initial Buildup ..........         0.000         0.000
  Surface Buildup ..........         0.000         0.000
  Wet Deposition ...........         0.000         0.000
  Sweeping Removal .........         0.000         0.000
  Infiltration Loss ........         0.000         0.000
  BMP Removal ..............         0.000         0.000
  Surface Runoff ...........         0.000         0.000
  Remaining Buildup ........         0.000         0.000
  Continuity Error (%) .....         0.000         0.000
  
  
  **************************        Volume        Volume
  Flow Routing Continuity        acre-feet      10^6 gal
  **************************     ---------     ---------
  Dry Weather Inflow .......         0.000         0.000
  Wet Weather Inflow .......         0.000         0.000
  Groundwater Inflow .......         0.000         0.000
  RDII Inflow ..............         0.000         0.000
  External Inflow ..........         0.000         0.000
  External Outflow .........         0.000         0.000
  Flooding Loss ............         0.000         0.000
  Evaporation Loss .........         0.000         0.000
  Exfiltration Loss ........         0.000         0.000
  Initial Stored Volume ....         0.000         0.000
  Final Stored Volume ......         0.000         0.000
  Continuity Error (%) .....         0.000
  
  
  **************************           TSS            TP
  Quality Routing Continuity           lbs           lbs
  **************************    ----------    ----------
  Dry Weather Inflow .......         0.000         0.000
  Wet Weather Inflow .......         0.000         0.000
  Groundwater Inflow .......         0.000         0.000
  RDII Inflow ..............         0.000         0.000
  External Inflow ..........         0.000         0.000
  External Outflow .........         0.000         0.000
  Flooding Loss ............         0.000         0.000
  Exfiltration Loss ........         0.000         0.000
  Mass Reacted .............         0.000         0.000
  Initial Stored Mass ......         0.000         0.000
  Final Stored Mass ........         0.000         0.000
  Continuity Error (%) .....         0.000         0.000
  
  
  ***************************
  Time-Step Critical Elements
  ***************************
  None
  
  
  ********************************
  Highest Flow Instability Indexes
  ********************************
  All links are stable.
  
  
  *********************************
  Most Frequent Nonconverging Nodes
  *********************************
  Convergence obtained at all time steps.
  
  
  *************************
  Routing Time Step Summary
  *************************
  Minimum Time Step           :    59.50 sec
  Average Time Step           :    60.00 sec
  Maximum Time Step           :    60.00 sec
  % of Time in Steady State   :     0.00
  Average Iterations per Step :     2.00
  % of Steps Not Converging   :     0.00
  Time Step Frequencies       :
     60.000 - 23.031 sec      :   100.00 %
     23.031 -  8.841 sec      :     0.00 %
      8.841 -  3.393 sec      :     0.00 %
      3.393 -  1.303 sec      :     0.00 %
      1.303 -  0.500 sec      :     0.00 %
  
  
  ***************************
  Subcatchment Runoff Summary
  ***************************
  
  ------------------------------------------------------------------------------------------------------------------------------
                            Total      Total      Total      Total     Imperv       Perv      Total       Total     Peak  Runoff
                           Precip      Runon       Evap      Infil     Runoff     Runoff     Runoff      Runoff   Runoff   Coeff
  Subcatchment                 in         in         in         in         in         in         in    10^6 gal      MGD
  ------------------------------------------------------------------------------------------------------------------------------
  CA-1                       0.00       0.00       0.00       0.00       0.00       0.00       0.00        0.00     0.00   0.000
  CA-11                      0.00       0.00       0.00       0.00       0.00       0.00       0.00        0.00     0.00   0.000
  CA-7                       0.00       0.00       0.00       0.00       0.00       0.00       0.00        0.00     0.00   0.000
  CA-8                       0.00       0.00       0.00       0.00       0.00       0.00       0.00        0.00     0.00   0.000
  
  
  ****************************
  Subcatchment Washoff Summary
  ****************************
  
  ------------------------------------------------
                                 TSS            TP
  Subcatchment                   lbs           lbs
  ------------------------------------------------
  CA-1                         0.000         0.000
  CA-11                        0.000         0.000
  CA-7                         0.000         0.000
  CA-8                         0.000         0.000
  ------------------------------------------------
  System                       0.000         0.000
  
  
  ******************
  Node Depth Summary
  ******************
  
  ---------------------------------------------------------------------------------
                                 Average  Maximum  Maximum  Time of Max    Reported
                                   Depth    Depth      HGL   Occurrence   Max Depth
  Node                 Type         Feet     Feet     Feet  days hr:min        Feet
  ---------------------------------------------------------------------------------
  JCT-10               JUNCTION     0.00     0.00     3.60     0  00:00        0.00
  P001                 JUNCTION     0.00     0.00     1.10     0  00:00        0.00
  P005                 JUNCTION     0.00     0.00     1.58     0  00:00        0.00
  P009                 JUNCTION     0.00     0.00     3.60     0  00:00        0.00
  P011                 JUNCTION     0.00     0.00     2.89     0  00:00        0.00
  OUTLET               OUTFALL      0.00     0.00     0.00     0  00:00        0.00
  
  
  *******************
  Node Inflow Summary
  *******************
  
  -------------------------------------------------------------------------------------------------
                                  Maximum  Maximum                  Lateral       Total        Flow
                                  Lateral    Total  Time of Max      Inflow      Inflow     Balance
                                   Inflow   Inflow   Occurrence      Volume      Volume       Error
  Node                 Type           MGD      MGD  days hr:min    10^6 gal    10^6 gal     Percent
  -------------------------------------------------------------------------------------------------
  JCT-10               JUNCTION     0.000    0.000     0  00:00           0           0       0.000 gal
  P001                 JUNCTION     0.000    0.000     0  00:00           0           0       0.000 gal
  P005                 JUNCTION     0.000    0.000     0  00:00           0           0       0.000 gal
  P009                 JUNCTION     0.000    0.000     0  00:00           0           0       0.000 gal
  P011                 JUNCTION     0.000    0.000     0  00:00           0           0       0.000 gal
  OUTLET               OUTFALL      0.000    0.000     0  00:00           0           0       0.000 gal
  
  
  **********************
  Node Surcharge Summary
  **********************
  
  No nodes were surcharged.
  
  
  *********************
  Node Flooding Summary
  *********************
  
  No nodes were flooded.
  
  
  ***********************
  Outfall Loading Summary
  ***********************
  
  ---------------------------------------------------------------------------------------
                         Flow       Avg       Max       Total         Total         Total
                         Freq      Flow      Flow      Volume           TSS            TP
  Outfall Node           Pcnt       MGD       MGD    10^6 gal           lbs           lbs
  ---------------------------------------------------------------------------------------
  OUTLET                 0.00     0.000     0.000       0.000         0.000         0.000
  ---------------------------------------------------------------------------------------
  System                 0.00     0.000     0.000       0.000         0.000         0.000
  
  
  ********************
  Link Flow Summary
  ********************
  
  -----------------------------------------------------------------------------
                                 Maximum  Time of Max   Maximum    Max/    Max/
                                  |Flow|   Occurrence   |Veloc|    Full    Full
  Link                 Type          MGD  days hr:min    ft/sec    Flow   Depth
  -----------------------------------------------------------------------------
  CDT-11               CONDUIT     0.000     0  00:00      0.00    0.00    0.00
  CDT-13               CONDUIT     0.000     0  00:00      0.00    0.00    0.00
  CDT-15               CONDUIT     0.000     0  00:00      0.00    0.00    0.00
  P001                 CONDUIT     0.000     0  00:00      0.00    0.00    0.00
  P005                 CONDUIT     0.000     0  00:00      0.00    0.00    0.00
  P009                 CONDUIT     0.000     0  00:00      0.00    0.00    0.00
  P011                 CONDUIT     0.000     0  00:00      0.00    0.00    0.00
  
  
  ***************************
  Flow Classification Summary
  ***************************
  
  -------------------------------------------------------------------------------------
                      Adjusted    ---------- Fraction of Time in Flow Class ---------- 
                       /Actual         Up    Down  Sub   Sup   Up    Down  Norm  Inlet 
  Conduit               Length    Dry  Dry   Dry   Crit  Crit  Crit  Crit  Ltd   Ctrl  
  -------------------------------------------------------------------------------------
  CDT-11                  1.00   1.00  0.00  0.00  0.00  0.00  0.00  0.00  0.00  0.00
  CDT-13                  1.00   1.00  0.00  0.00  0.00  0.00  0.00  0.00  0.00  0.00
  CDT-15                  1.00   1.00  0.00  0.00  0.00  0.00  0.00  0.00  0.00  0.00
  P001                    2.50   1.00  0.00  0.00  0.00  0.00  0.00  0.00  0.00  0.00
  P005                    1.69   1.00  0.00  0.00  0.00  0.00  0.00  0.00  0.00  0.00
  P009                    1.00   1.00  0.00  0.00  0.00  0.00  0.00  0.00  0.00  0.00
  P011                    1.00   1.00  0.00  0.00  0.00  0.00  0.00  0.00  0.00  0.00
  
  
  *************************
  Conduit Surcharge Summary
  *************************
  
  No conduits were surcharged.
  
  
  ***************************
  Link Pollutant Load Summary
  ***************************
  
  ------------------------------------------------
                                 TSS            TP
  Link                           lbs           lbs
  ------------------------------------------------
  CDT-11                       0.000         0.000
  CDT-13                       0.000         0.000
  CDT-15                       0.000         0.000
  P001                         0.000         0.000
  P005                         0.000         0.000
  P009                         0.000         0.000
  P011                         0.000         0.000
  

  Analysis begun on:  Wed Jun 24 17:36:45 2026
  Analysis ended on:  Wed Jun 24 17:36:46 2026
  Total elapsed time: 00:00:01