
  EPA STORM WATER MANAGEMENT MODEL - VERSION 5.2 (Build 5.2.4)
  ------------------------------------------------------------

  Scenario Run :  BASE 
   SW 1 0 20A1 'EXTRAN USER''S MANUAL EXAMPLE 1'A1 'baseline extran model from 
  
  *************
  Element Count
  *************
  Number of rain gages ...... 0
  Number of subcatchments ... 0
  Number of nodes ........... 10
  Number of links ........... 9
  Number of pollutants ...... 0
  Number of land uses ....... 0
  
  
  ************
  Node Summary
  ************
                                           Invert      Max.    Ponded    External
  Name                 Type                 Elev.     Depth      Area    Inflow  
  -------------------------------------------------------------------------------
  10309                JUNCTION            101.60      9.40       0.0
  15009                JUNCTION            111.50     13.50       0.0
  16009                JUNCTION            102.00     18.00       0.0
  16109                JUNCTION            102.80     22.20       0.0
  80408                JUNCTION            124.60     13.40       0.0    Yes
  80608                JUNCTION            118.30     16.70       0.0
  81009                JUNCTION            128.20      8.80       0.0    Yes
  82309                JUNCTION            112.30     42.70       0.0    Yes
  CDT-369              JUNCTION            117.50     12.50       0.0
  10208                OUTFALL              89.90      9.00       0.0
  
  
  ************
  Link Summary
  ************
  Name             From Node        To Node          Type            Length    %Slope Roughness
  ---------------------------------------------------------------------------------------------
  1030             10309            10208            CONDUIT         4500.0    0.2600    0.0160
  1570             15009            16009            CONDUIT         5000.0    0.1900    0.0154
  1600             16009            16109            CONDUIT          500.0   -0.1600    0.0150
  1602             82309            16109            CONDUIT         5000.0    0.1900    0.0340
  1630             16009            10309            CONDUIT          300.0    0.1333    0.0150
  8040             80408            80608            CONDUIT         1800.0    0.3500    0.0150
  8060             80608            82309            CONDUIT         2075.0    0.1831    0.0150
  8130             CDT-369          15009            CONDUIT         3500.0    0.1714    0.0150
  CDT-369          81009            CDT-369          CONDUIT         5100.0    0.2098    0.0150
  
  
  *********************
  Cross Section Summary
  *********************
                                        Full     Full     Hyd.     Max.   No. of     Full
  Conduit          Shape               Depth     Area     Rad.    Width  Barrels     Flow
  ---------------------------------------------------------------------------------------
  1030             TRIANGULAR           9.00   243.00     4.27    54.00        1  3028.41
  1570             CIRCULAR             5.50    23.76     1.38     5.50        1   123.56
  1600             CIRCULAR             6.00    28.27     1.50     6.00        1   146.82
  1602             CIRCULAR             5.00    19.63     1.25     5.00        1    43.41
  1630             TRIANGULAR           9.00   243.00     4.27    54.00        1  2313.27
  8040             CIRCULAR             4.00    12.57     1.00     4.00        1    73.65
  8060             CIRCULAR             4.00    12.57     1.00     4.00        1    53.27
  8130             CIRCULAR             4.50    15.90     1.12     4.50        1    70.56
  CDT-369          CIRCULAR             4.50    15.90     1.12     4.50        1    78.06
  
  
  ****************
  Analysis Options
  ****************
  Flow Units ............... CFS
  Process Models:
    Rainfall/Runoff ........ NO
    RDII ................... NO
    Snowmelt ............... NO
    Groundwater ............ NO
    Flow Routing ........... YES
    Ponding Allowed ........ NO
    Water Quality .......... NO
  Flow Routing Method ...... DYNWAVE
  Surcharge Method ......... EXTRAN
  Starting Date ............ 04/24/2008 00:00:00
  Ending Date .............. 04/24/2008 06:00:00
  Antecedent Dry Days ...... 0.0
  Report Time Step ......... 01:40:00
  Routing Time Step ........ 60.00 sec
  Variable Time Step ....... YES
  Maximum Trials ........... 4
  Number of Threads ........ 1
  Head Tolerance ........... 0.005000 ft
  
  
  **************************        Volume        Volume
  Flow Routing Continuity        acre-feet      10^6 gal
  **************************     ---------     ---------
  Dry Weather Inflow .......         0.000         0.000
  Wet Weather Inflow .......         0.000         0.000
  Groundwater Inflow .......         0.000         0.000
  RDII Inflow ..............         0.000         0.000
  External Inflow ..........        22.232         7.245
  External Outflow .........        20.772         6.769
  Flooding Loss ............         0.000         0.000
  Evaporation Loss .........         0.002         0.001
  Exfiltration Loss ........         1.314         0.428
  Initial Stored Volume ....         0.000         0.000
  Final Stored Volume ......         0.154         0.050
  Continuity Error (%) .....        -0.045
  
  
  ***************************
  Time-Step Critical Elements
  ***************************
  Link 1630 (95.01%)
  Link 1600 (1.41%)
  
  
  ********************************
  Highest Flow Instability Indexes
  ********************************
  All links are stable.
  
  
  *********************************
  Most Frequent Nonconverging Nodes
  *********************************
  Node 81009 (0.26%)
  Node 82309 (0.26%)
  Node 10208 (0.26%)
  
  
  *************************
  Routing Time Step Summary
  *************************
  Minimum Time Step           :    10.98 sec
  Average Time Step           :    27.66 sec
  Maximum Time Step           :    60.00 sec
  % of Time in Steady State   :     0.00
  Average Iterations per Step :     2.03
  % of Steps Not Converging   :     0.26
  Time Step Frequencies       :
     60.000 - 23.031 sec      :    38.33 %
     23.031 -  8.841 sec      :    61.67 %
      8.841 -  3.393 sec      :     0.00 %
      3.393 -  1.303 sec      :     0.00 %
      1.303 -  0.500 sec      :     0.00 %
  
  
  ******************
  Node Depth Summary
  ******************
  
  ---------------------------------------------------------------------------------
                                 Average  Maximum  Maximum  Time of Max    Reported
                                   Depth    Depth      HGL   Occurrence   Max Depth
  Node                 Type         Feet     Feet     Feet  days hr:min        Feet
  ---------------------------------------------------------------------------------
  10309                JUNCTION     1.82     2.43   104.03     0  01:55        2.42
  15009                JUNCTION     1.72     2.41   113.91     0  01:35        2.41
  16009                JUNCTION     1.96     2.61   104.61     0  01:47        2.61
  16109                JUNCTION     1.58     2.21   105.01     0  01:52        2.21
  80408                JUNCTION     0.00     0.00   124.60     0  00:00        0.00
  80608                JUNCTION     0.00     0.00   118.30     0  00:00        0.00
  81009                JUNCTION     1.72     2.85   131.05     0  00:32        2.61
  82309                JUNCTION     3.22     4.69   116.99     0  01:34        4.69
  CDT-369              JUNCTION     2.06     3.07   120.57     0  01:01        2.98
  10208                OUTFALL      1.62     2.20    92.10     0  01:55        2.20
  
  
  *******************
  Node Inflow Summary
  *******************
  
  -------------------------------------------------------------------------------------------------
                                  Maximum  Maximum                  Lateral       Total        Flow
                                  Lateral    Total  Time of Max      Inflow      Inflow     Balance
                                   Inflow   Inflow   Occurrence      Volume      Volume       Error
  Node                 Type           CFS      CFS  days hr:min    10^6 gal    10^6 gal     Percent
  -------------------------------------------------------------------------------------------------
  10309                JUNCTION      0.00    88.12     0  01:46           0        6.93       0.212
  15009                JUNCTION      0.00    50.29     0  01:13           0        3.95       0.180
  16009                JUNCTION      0.00    88.55     0  01:41           0        7.01       0.365
  16109                JUNCTION      0.00    39.73     0  01:45           0        3.19       0.000
  80408                JUNCTION      0.00     0.00     0  00:00           0           0       0.000 gal
  80608                JUNCTION      0.00     0.00     0  00:00           0           0       0.000 gal
  81009                JUNCTION     50.00    50.00     0  00:16        4.02        4.02      -0.545
  82309                JUNCTION     40.00    40.00     0  00:16        3.22        3.22      -0.363
  CDT-369              JUNCTION      0.00    53.70     0  00:41           0        4.02       0.372
  10208                OUTFALL       0.00    86.55     0  01:55           0        6.77       0.000
  
  
  **********************
  Node Surcharge Summary
  **********************
  
  No nodes were surcharged.
  
  
  *********************
  Node Flooding Summary
  *********************
  
  No nodes were flooded.
  
  
  ***********************
  Outfall Loading Summary
  ***********************
  
  -----------------------------------------------------------
                         Flow       Avg       Max       Total
                         Freq      Flow      Flow      Volume
  Outfall Node           Pcnt       CFS       CFS    10^6 gal
  -----------------------------------------------------------
  10208                 95.77     56.34     86.55       6.768
  -----------------------------------------------------------
  System                95.77     56.34     86.55       6.768
  
  
  ********************
  Link Flow Summary
  ********************
  
  -----------------------------------------------------------------------------
                                 Maximum  Time of Max   Maximum    Max/    Max/
                                  |Flow|   Occurrence   |Veloc|    Full    Full
  Link                 Type          CFS  days hr:min    ft/sec    Flow   Depth
  -----------------------------------------------------------------------------
  1030                 CONDUIT     86.55     0  01:55      5.38    0.03    0.26
  1570                 CONDUIT     49.25     0  01:35      4.67    0.40    0.46
  1600                 CONDUIT     39.41     0  01:59      4.27    0.27    0.40
  1602                 CONDUIT     39.73     0  01:45      2.77    0.92    0.69
  1630                 CONDUIT     88.12     0  01:46      5.30    0.04    0.28
  8040                 CONDUIT      0.00     0  00:00      0.00    0.00    0.00
  8060                 CONDUIT      0.00     0  00:00      0.00    0.00    0.31
  8130                 CONDUIT     50.29     0  01:13      5.53    0.71    0.60
  CDT-369              CONDUIT     53.70     0  00:41      6.62    0.69    0.63
  
  
  ***************************
  Flow Classification Summary
  ***************************
  
  -------------------------------------------------------------------------------------
                      Adjusted    ---------- Fraction of Time in Flow Class ---------- 
                       /Actual         Up    Down  Sub   Sup   Up    Down  Norm  Inlet 
  Conduit               Length    Dry  Dry   Dry   Crit  Crit  Crit  Crit  Ltd   Ctrl  
  -------------------------------------------------------------------------------------
  1030                    1.00   0.06  0.00  0.00  0.94  0.00  0.00  0.00  0.00  0.00
  1570                    1.00   0.00  0.02  0.00  0.97  0.00  0.00  0.00  0.91  0.00
  1600                    1.00   0.00  0.00  0.00  0.99  0.01  0.00  0.00  0.36  0.00
  1602                    1.00   0.00  0.00  0.00  0.99  0.01  0.00  0.00  0.00  0.00
  1630                    1.00   0.00  0.00  0.00  0.97  0.03  0.00  0.00  0.29  0.00
  8040                    1.00   1.00  0.00  0.00  0.00  0.00  0.00  0.00  0.00  0.00
  8060                    1.00   0.45  0.55  0.00  0.00  0.00  0.00  0.00  0.00  0.00
  8130                    1.00   0.00  0.00  0.00  0.98  0.02  0.00  0.00  0.45  0.00
  CDT-369                 1.00   0.00  0.10  0.00  0.85  0.04  0.00  0.00  0.89  0.00
  
  
  *************************
  Conduit Surcharge Summary
  *************************
  
  No conduits were surcharged.
  

  Analysis begun on:  Wed Jun 24 17:35:50 2026
  Analysis ended on:  Wed Jun 24 17:35:50 2026
  Total elapsed time: < 1 sec