
  EPA STORM WATER MANAGEMENT MODEL - VERSION 5.2 (Build 5.2.4)
  ------------------------------------------------------------

  
  ****************
  Analysis Options
  ****************
  Flow Units ............... MGD
  Process Models:
    Rainfall/Runoff ........ YES
    RDII ................... YES
    Snowmelt ............... NO
    Groundwater ............ YES
    Flow Routing ........... YES
    Ponding Allowed ........ NO
    Water Quality .......... YES
  Infiltration Method ...... GREEN_AMPT
  Flow Routing Method ...... DYNWAVE
  Surcharge Method ......... EXTRAN
  Starting Date ............ 01/01/2008 00:00:00
  Ending Date .............. 06/30/2008 00:00:00
  Antecedent Dry Days ...... 0.0
  Report Time Step ......... 00:15:00
  Wet Time Step ............ 00:15:00
  Dry Time Step ............ 00:15:00
  Routing Time Step ........ 60.00 sec
  Variable Time Step ....... YES
  Maximum Trials ........... 8
  Number of Threads ........ 1
  Head Tolerance ........... 0.005000 ft
  
  
  *********************
  Rainfall File Summary
  *********************
  Station    First        Last         Recording   Periods    Periods    Periods
  ID         Date         Date         Frequency  w/Precip    Missing    Malfunc.
  -------------------------------------------------------------------------------
  RG02       01/01/2008   06/30/2008      15 min     52416          0          0

  
  
  **********************           Volume        Volume
  Rainfall Dependent I/I        acre-feet      10^6 gal
  **********************        ---------     ---------
  Sewershed Rainfall ......        47.430        15.456
  RDII Produced ...........         0.944         0.308
  RDII Ratio ..............         0.020
  
  
  **************************        Volume         Depth
  Runoff Quantity Continuity     acre-feet        inches
  **************************     ---------       -------
  Total Precipitation ......        53.591         9.223
  Evaporation Loss .........        18.816         3.238
  Infiltration Loss ........        33.326         5.736
  Surface Runoff ...........         4.133         0.711
  Final Storage ............         0.000         0.000
  Continuity Error (%) .....        -5.008
  
  
  **************************            TP
  Runoff Quality Continuity            lbs
  **************************    ----------
  Initial Buildup ..........         0.000
  Surface Buildup ..........         0.000
  Wet Deposition ...........        14.563
  Sweeping Removal .........         0.000
  Infiltration Loss ........         9.056
  BMP Removal ..............         0.000
  Surface Runoff ...........         1.043
  Remaining Buildup ........         0.000
  Continuity Error (%) .....        30.655
  
  
  **************************        Volume         Depth
  Groundwater Continuity         acre-feet        inches
  **************************     ---------       -------
  Initial Storage ..........     10966.551      1887.395
  Infiltration .............        33.326         5.736
  Upper Zone ET ............        66.217        11.396
  Lower Zone ET ............        32.413         5.578
  Deep Percolation .........         0.000         0.000
  Groundwater Flow .........        59.816        10.295
  Final Storage ............     10841.421      1865.859
  Continuity Error (%) .....         0.000
  
  
  **************************        Volume        Volume
  Flow Routing Continuity        acre-feet      10^6 gal
  **************************     ---------     ---------
  Dry Weather Inflow .......        28.664         9.341
  Wet Weather Inflow .......         4.139         1.349
  Groundwater Inflow .......        59.815        19.492
  RDII Inflow ..............         0.944         0.308
  External Inflow ..........         0.000         0.000
  External Outflow .........        93.552        30.485
  Flooding Loss ............         0.007         0.002
  Evaporation Loss .........         0.000         0.000
  Exfiltration Loss ........         0.000         0.000
  Initial Stored Volume ....         0.000         0.000
  Final Stored Volume ......         0.004         0.001
  Continuity Error (%) .....         0.000
  
  
  **************************            TP
  Quality Routing Continuity           lbs
  **************************    ----------
  Dry Weather Inflow .......         0.000
  Wet Weather Inflow .......         1.044
  Groundwater Inflow .......         0.000
  RDII Inflow ..............         0.000
  External Inflow ..........         0.000
  External Outflow .........         1.047
  Flooding Loss ............         0.001
  Exfiltration Loss ........         0.000
  Mass Reacted .............         0.000
  Initial Stored Mass ......         0.000
  Final Stored Mass ........         0.000
  Continuity Error (%) .....        -0.356
  
  
  ***************************
  Time-Step Critical Elements
  ***************************
  Link 007-316.1 (76.67%)
  Link 007-315.1 (17.49%)
  Link 007-337.1 (1.51%)
  
  
  ********************************
  Highest Flow Instability Indexes
  ********************************
  All links are stable.
  
  
  *********************************
  Most Frequent Nonconverging Nodes
  *********************************
  Node 007-307 (0.15%)
  Node 007-337 (0.08%)
  Node 007-321 (0.07%)
  Node 007-316 (0.06%)
  Node 007-322 (0.06%)
  
  
  *************************
  Routing Time Step Summary
  *************************
  Minimum Time Step           :     0.92 sec
  Average Time Step           :    43.47 sec
  Maximum Time Step           :    60.00 sec
  % of Time in Steady State   :     0.00
  Average Iterations per Step :     2.02
  % of Steps Not Converging   :     0.15
  Time Step Frequencies       :
     60.000 - 23.031 sec      :    88.03 %
     23.031 -  8.841 sec      :    11.09 %
      8.841 -  3.393 sec      :     0.77 %
      3.393 -  1.303 sec      :     0.11 %
      1.303 -  0.500 sec      :     0.00 %
  
  
  ***************************
  Subcatchment Runoff Summary
  ***************************
  
  ------------------------------------------------------------------------------------------------------------------------------
                            Total      Total      Total      Total     Imperv       Perv      Total       Total     Peak  Runoff
                           Precip      Runon       Evap      Infil     Runoff     Runoff     Runoff      Runoff   Runoff   Coeff
  Subcatchment                 in         in         in         in         in         in         in    10^6 gal      MGD
  ------------------------------------------------------------------------------------------------------------------------------
  S007-311                   9.22       0.00       0.92       8.63       0.00       0.00       0.00        0.00     0.00   0.000
  S007-316                   9.22       0.00       3.59       5.23       0.86       0.04       0.91        0.20     0.18   0.098
  S007-322                   9.22       0.00       3.56       5.39       0.73       0.03       0.76        0.17     0.15   0.082
  S007-325                   9.22       0.00       3.30       5.89       0.53       0.03       0.56        0.26     0.22   0.061
  S007-334                   9.22       0.00       3.86       4.82       0.95       0.03       0.98        0.23     0.19   0.106
  S007-341                   9.22       0.00       3.83       4.83       0.98       0.03       1.01        0.23     0.20   0.110
  S007-347                   9.22       0.00       3.76       4.97       0.92       0.03       0.96        0.26     0.23   0.104
  
  
  *******************
  Groundwater Summary
  *******************
  
  -----------------------------------------------------------------------------------------------------
                                            Total    Total  Maximum  Average  Average    Final    Final
                          Total    Total    Lower  Lateral  Lateral    Upper    Water    Upper    Water
                          Infil     Evap  Seepage  Outflow  Outflow   Moist.    Table   Moist.    Table
  Subcatchment               in       in       in       in      MGD                ft                ft
  -----------------------------------------------------------------------------------------------------
  S007-311                 8.63    23.22     0.00     9.02     0.17     0.35   275.27     0.31   273.19
  S007-316                 5.23    15.80     0.00    11.08     0.16     0.36   291.57     0.33   290.08
  S007-322                 5.39    17.70     0.00     8.73     0.14     0.35   319.43     0.32   317.77
  S007-325                 5.89    17.42     0.00    10.64     0.27     0.35   330.11     0.32   328.89
  S007-334                 4.82    11.57     0.00    14.80     0.13     0.37   338.92     0.34   338.62
  S007-341                 4.83    11.77     0.00    14.59     0.14     0.37   335.09     0.34   334.70
  S007-347                 4.97    19.62     0.00     4.21     0.17     0.34   325.93     0.30   323.80
  
  
  ****************************
  Subcatchment Washoff Summary
  ****************************
  
  ----------------------------------
                                  TP
  Subcatchment                   lbs
  ----------------------------------
  S007-311                     0.000
  S007-316                     0.160
  S007-322                     0.126
  S007-325                     0.177
  S007-334                     0.180
  S007-341                     0.188
  S007-347                     0.212
  ----------------------------------
  System                       1.043
  
  
  ******************
  Node Depth Summary
  ******************
  
  ---------------------------------------------------------------------------------
                                 Average  Maximum  Maximum  Time of Max    Reported
                                   Depth    Depth      HGL   Occurrence   Max Depth
  Node                 Type         Feet     Feet     Feet  days hr:min        Feet
  ---------------------------------------------------------------------------------
  007-308              JUNCTION     0.21     0.60   264.20     7  08:50        0.59
  007-309              JUNCTION     0.21     0.60   266.00     7  08:49        0.59
  007-310              JUNCTION     0.19     0.51   273.11     7  08:49        0.51
  007-311              JUNCTION     0.21     0.62   277.32     7  08:47        0.61
  007-312              JUNCTION     0.20     0.57   280.27     7  08:46        0.57
  007-313              JUNCTION     0.19     0.52   283.42     7  08:45        0.52
  007-314              JUNCTION     0.20     0.57   285.67     7  08:43        0.57
  007-315              JUNCTION     0.25     2.22   290.74    13  15:03        2.08
  007-316              JUNCTION     0.27     3.69   295.76    13  15:03        3.52
  007-317              JUNCTION     0.17     2.40   299.00     7  08:41        2.40
  007-318              JUNCTION     0.14     0.50   301.77    13  15:07        0.43
  007-319              JUNCTION     0.11     0.33   316.03    13  15:06        0.31
  007-320              JUNCTION     0.26     2.91   320.31    13  15:05        2.22
  007-321              JUNCTION     0.21     4.23   323.53    13  15:05        2.98
  007-322              JUNCTION     0.15     4.00   324.80    13  15:05        2.52
  007-323              JUNCTION     0.09     0.27   326.01    13  15:05        0.27
  007-324              JUNCTION     0.11     0.34   328.60    13  15:04        0.34
  007-325              JUNCTION     0.10     0.32   331.53    13  15:02        0.32
  007-326              JUNCTION     0.00     0.00   333.40     0  00:00        0.00
  007-327              JUNCTION     0.00     0.00   335.50     0  00:00        0.00
  007-328              JUNCTION     0.00     0.00   337.70     0  00:00        0.00
  007-329              JUNCTION     0.00     0.00   350.30     0  00:00        0.00
  007-330              JUNCTION     0.00     0.00   356.22     0  00:00        0.00
  007-331              JUNCTION     0.00     0.00   346.90     0  00:00        0.00
  007-332              JUNCTION     0.00     0.00   349.30     0  00:00        0.00
  007-333              JUNCTION     0.00     0.00   345.20     0  00:00        0.00
  007-334              JUNCTION     0.07     0.20   339.30    13  15:15        0.20
  007-335              JUNCTION     0.07     0.21   330.01    13  15:16        0.21
  007-336              JUNCTION     0.07     0.20   327.70    13  15:16        0.20
  007-337              JUNCTION     0.18     4.17   323.57    13  15:05        2.91
  007-338              JUNCTION     0.00     0.00   354.50     0  00:00        0.00
  007-339              JUNCTION     0.00     0.00   347.90     0  00:00        0.00
  007-340              JUNCTION     0.00     0.00   339.90     0  00:00        0.00
  007-341              JUNCTION     0.07     0.20   335.47    13  15:15        0.20
  007-342              JUNCTION     0.09     0.26   329.46    13  15:15        0.26
  007-343              JUNCTION     0.06     0.18   327.88    13  15:16        0.18
  007-344              JUNCTION     0.05     0.14   325.04    13  15:16        0.14
  007-345              JUNCTION     0.04     0.11   301.11   154  21:02        0.11
  007-346              JUNCTION     0.06     0.19   317.69   154  21:01        0.19
  007-347              JUNCTION     0.07     0.21   328.81   154  21:00        0.21
  007-348              JUNCTION     0.00     0.00   339.20     0  00:00        0.00
  007-349              JUNCTION     0.00     0.00   351.50     0  00:00        0.00
  007-351              JUNCTION     0.00     0.00   342.40     0  00:00        0.00
  007-352              JUNCTION     0.00     0.00   353.30     0  00:00        0.00
  007-307              OUTFALL      0.21     0.60   261.60     7  08:50        0.59
  
  
  *******************
  Node Inflow Summary
  *******************
  
  -------------------------------------------------------------------------------------------------
                                  Maximum  Maximum                  Lateral       Total        Flow
                                  Lateral    Total  Time of Max      Inflow      Inflow     Balance
                                   Inflow   Inflow   Occurrence      Volume      Volume       Error
  Node                 Type           MGD      MGD  days hr:min    10^6 gal    10^6 gal     Percent
  -------------------------------------------------------------------------------------------------
  007-308              JUNCTION     0.000    1.273     7  08:49           0        30.5       0.002
  007-309              JUNCTION     0.000    1.273     7  08:49           0        30.5      -0.002
  007-310              JUNCTION     0.000    1.276     7  08:47           0        30.5       0.001
  007-311              JUNCTION     0.172    1.277     7  08:46        2.38        30.5       0.000
  007-312              JUNCTION     0.000    1.136     7  08:45           0        28.1       0.000
  007-313              JUNCTION     0.000    1.136     7  08:43           0        28.1       0.000
  007-314              JUNCTION     0.000    1.136    13  15:04           0        28.1       0.000
  007-315              JUNCTION     0.000    1.135     7  08:44           0        28.1      -0.001
  007-316              JUNCTION     0.238    1.175    13  15:03        3.89        28.1       0.002
  007-317              JUNCTION     0.000    1.009    13  15:07           0        20.2       0.001
  007-318              JUNCTION     0.000    0.778    13  15:06           0        15.1       0.001
  007-319              JUNCTION     0.000    0.779    13  15:05           0        15.1       0.001
  007-320              JUNCTION     0.000    0.779    13  15:05           0        15.1       0.000
  007-321              JUNCTION     0.000    0.783    13  15:05           0        15.1       0.001
  007-322              JUNCTION     0.190    0.555    13  15:04        3.42        10.3      -0.001
  007-323              JUNCTION     0.000    0.372    13  15:04           0        6.86       0.002
  007-324              JUNCTION     0.000    0.372    13  15:03           0        6.86      -0.000
  007-325              JUNCTION     0.374    0.374    13  15:00        6.86        6.86      -0.001
  007-326              JUNCTION     0.000    0.000     0  00:00           0           0       0.000 gal
  007-327              JUNCTION     0.000    0.000     0  00:00           0           0       0.000 gal
  007-328              JUNCTION     0.000    0.000     0  00:00           0           0       0.000 gal
  007-329              JUNCTION     0.000    0.000     0  00:00           0           0       0.000 gal
  007-330              JUNCTION     0.000    0.000     0  00:00           0           0       0.000 gal
  007-331              JUNCTION     0.000    0.000     0  00:00           0           0       0.000 gal
  007-332              JUNCTION     0.000    0.000     0  00:00           0           0       0.000 gal
  007-333              JUNCTION     0.000    0.000     0  00:00           0           0       0.000 gal
  007-334              JUNCTION     0.247    0.247    13  15:15        4.86        4.86      -0.001
  007-335              JUNCTION     0.000    0.247    13  15:15           0        4.86       0.000
  007-336              JUNCTION     0.000    0.246    13  15:16           0        4.86       0.001
  007-337              JUNCTION     0.000    0.246    13  15:17           0        4.86       0.002
  007-338              JUNCTION     0.000    0.000     0  00:00           0           0       0.000 gal
  007-339              JUNCTION     0.000    0.000     0  00:00           0           0       0.000 gal
  007-340              JUNCTION     0.000    0.000     0  00:00           0           0       0.000 gal
  007-341              JUNCTION     0.252    0.252    13  15:15        5.03        5.03      -0.001
  007-342              JUNCTION     0.000    0.252    13  15:15           0        5.03      -0.000
  007-343              JUNCTION     0.000    0.252    13  15:15           0        5.03       0.001
  007-344              JUNCTION     0.000    0.252    13  15:16           0        5.03      -0.000
  007-345              JUNCTION     0.000    0.242   154  21:01           0        4.05       0.000
  007-346              JUNCTION     0.000    0.245   154  21:00           0        4.05       0.003
  007-347              JUNCTION     0.249    0.249   154  21:00        4.05        4.05      -0.004
  007-348              JUNCTION     0.000    0.000     0  00:00           0           0       0.000 gal
  007-349              JUNCTION     0.000    0.000     0  00:00           0           0       0.000 gal
  007-351              JUNCTION     0.000    0.000     0  00:00           0           0       0.000 gal
  007-352              JUNCTION     0.000    0.000     0  00:00           0           0       0.000 gal
  007-307              OUTFALL      0.000    1.272     7  08:50           0        30.5       0.000
  
  
  **********************
  Node Surcharge Summary
  **********************
  
  Surcharging occurs when water rises above the top of the highest conduit.
  ---------------------------------------------------------------------
                                               Max. Height   Min. Depth
                                   Hours       Above Crown    Below Rim
  Node                 Type      Surcharged           Feet         Feet
  ---------------------------------------------------------------------
  007-315              JUNCTION      145.00          1.552       15.262
  007-316              JUNCTION      137.07          3.026        6.238
  007-317              JUNCTION        7.11          1.733        0.000
  007-320              JUNCTION      210.70          2.247        4.686
  007-321              JUNCTION      107.71          3.564        0.469
  007-322              JUNCTION        9.50          3.332        4.201
  007-337              JUNCTION       91.83          3.506        2.427
  
  
  *********************
  Node Flooding Summary
  *********************
  
  Flooding refers to all water that overflows a node, whether it ponds or not.
  --------------------------------------------------------------------------
                                                             Total   Maximum
                                 Maximum   Time of Max       Flood    Ponded
                        Hours       Rate    Occurrence      Volume     Depth
  Node                 Flooded       MGD   days hr:min    10^6 gal      Feet
  --------------------------------------------------------------------------
  007-317                 1.07     0.158     13  15:07       0.002     0.000
  
  
  ***********************
  Outfall Loading Summary
  ***********************
  
  -------------------------------------------------------------------------
                         Flow       Avg       Max       Total         Total
                         Freq      Flow      Flow      Volume            TP
  Outfall Node           Pcnt       MGD       MGD    10^6 gal           lbs
  -------------------------------------------------------------------------
  007-307              100.00     0.274     1.272      30.483         1.046
  -------------------------------------------------------------------------
  System               100.00     0.274     1.272      30.483         1.046
  
  
  ********************
  Link Flow Summary
  ********************
  
  -----------------------------------------------------------------------------
                                 Maximum  Time of Max   Maximum    Max/    Max/
                                  |Flow|   Occurrence   |Veloc|    Full    Full
  Link                 Type          MGD  days hr:min    ft/sec    Flow   Depth
  -----------------------------------------------------------------------------
  007-308.1            CONDUIT     1.272     7  08:50      4.68    0.87    0.72
  007-309.1            CONDUIT     1.273     7  08:49      4.69    0.87    0.72
  007-310.1            CONDUIT     1.273     7  08:49      4.85    0.52    0.51
  007-311.1            CONDUIT     1.276     7  08:47      5.02    0.85    0.68
  007-312.1            CONDUIT     1.135     7  08:46      4.42    0.81    0.71
  007-313.1            CONDUIT     1.136     7  08:45      4.70    0.70    0.65
  007-314.1            CONDUIT     1.136     7  08:43      4.69    0.78    0.65
  007-315.1            CONDUIT     1.136    13  15:04      5.24    1.19    0.93
  007-316.1            CONDUIT     1.135     7  08:44      5.03    1.19    1.00
  007-317.1            CONDUIT     0.899    13  15:33      4.27    0.94    1.00
  007-318.1            CONDUIT     0.760    13  15:07      4.08    0.79    0.87
  007-319.1            CONDUIT     0.778    13  15:06      5.71    0.48    0.62
  007-320.1            CONDUIT     0.779    13  15:05      4.33    1.37    0.74
  007-321.1            CONDUIT     0.779    13  15:05      3.45    1.30    1.00
  007-322.1            CONDUIT     0.552    13  15:04      3.64    0.92    1.00
  007-323.1            CONDUIT     0.372    13  15:05      2.76    0.35    0.71
  007-324.1            CONDUIT     0.372    13  15:04      6.05    0.47    0.46
  007-325.1            CONDUIT     0.372    13  15:03      3.36    0.47    0.49
  007-326.1            CONDUIT     0.000     0  00:00      0.00    0.00    0.24
  007-327.1            CONDUIT     0.000     0  00:00      0.00    0.00    0.00
  007-328.1            CONDUIT     0.000     0  00:00      0.00    0.00    0.00
  007-329.1            CONDUIT     0.000     0  00:00      0.00    0.00    0.00
  007-330.1            CONDUIT     0.000     0  00:00      0.00    0.00    0.00
  007-331.1            CONDUIT     0.000     0  00:00      0.00    0.00    0.00
  007-332.1            CONDUIT     0.000     0  00:00      0.00    0.00    0.00
  007-333.1            CONDUIT     0.000     0  00:00      0.00    0.00    0.15
  007-334.1            CONDUIT     0.247    13  15:15      4.22    0.20    0.31
  007-335.1            CONDUIT     0.246    13  15:16      4.27    0.20    0.30
  007-336.1            CONDUIT     0.246    13  15:17      2.34    0.19    0.65
  007-337.1            CONDUIT     0.260    13  15:10      1.48    0.69    1.00
  007-338.1            CONDUIT     0.000     0  00:00      0.00    0.00    0.00
  007-339.1            CONDUIT     0.000     0  00:00      0.00    0.00    0.00
  007-340.1            CONDUIT     0.000     0  00:00      0.00    0.00    0.15
  007-341.1            CONDUIT     0.252    13  15:15      3.64    0.20    0.35
  007-342.1            CONDUIT     0.252    13  15:15      3.84    0.28    0.33
  007-343.1            CONDUIT     0.252    13  15:16      5.84    0.15    0.25
  007-344.1            CONDUIT     0.251    13  15:16      3.24    0.10    0.61
  007-345.1            CONDUIT     0.242   154  21:02      2.75    0.06    0.58
  007-346.1            CONDUIT     0.242   154  21:01      6.28    0.15    0.23
  007-347.1            CONDUIT     0.245   154  21:00     11.71    0.21    0.30
  007-348.1            CONDUIT     0.000     0  00:00      0.00    0.00    0.16
  007-349.1            CONDUIT     0.000     0  00:00      0.00    0.00    0.00
  007-351.1            CONDUIT     0.000     0  00:00      0.00    0.00    0.00
  007-352.1            CONDUIT     0.000     0  00:00      0.00    0.00    0.00
  
  
  ***************************
  Flow Classification Summary
  ***************************
  
  -------------------------------------------------------------------------------------
                      Adjusted    ---------- Fraction of Time in Flow Class ---------- 
                       /Actual         Up    Down  Sub   Sup   Up    Down  Norm  Inlet 
  Conduit               Length    Dry  Dry   Dry   Crit  Crit  Crit  Crit  Ltd   Ctrl  
  -------------------------------------------------------------------------------------
  007-308.1               1.16   0.00  0.00  0.00  0.00  1.00  0.00  0.00  0.08  0.00
  007-309.1               1.67   0.00  0.00  0.00  0.00  1.00  0.00  0.00  0.68  0.00
  007-310.1               1.97   0.00  0.00  0.00  0.00  0.00  0.00  1.00  0.00  0.00
  007-311.1               1.00   0.00  0.00  0.00  0.00  1.00  0.00  0.00  0.00  0.00
  007-312.1               1.00   0.00  0.00  0.00  0.01  0.99  0.00  0.00  0.13  0.00
  007-313.1               1.19   0.00  0.00  0.00  0.00  1.00  0.00  0.00  1.00  0.00
  007-314.1               1.33   0.00  0.00  0.00  0.00  1.00  0.00  0.00  0.00  0.00
  007-315.1               1.17   0.00  0.00  0.00  0.03  0.97  0.00  0.00  0.90  0.00
  007-316.1               1.13   0.00  0.00  0.00  0.03  0.97  0.00  0.00  0.61  0.00
  007-317.1               1.00   0.00  0.00  0.00  0.04  0.96  0.00  0.00  1.00  0.00
  007-318.1               1.00   0.00  0.00  0.00  0.00  1.00  0.00  0.00  1.00  0.00
  007-319.1               1.06   0.00  0.00  0.00  0.00  1.00  0.00  0.00  1.00  0.00
  007-320.1               1.00   0.00  0.00  0.00  0.05  0.95  0.00  0.00  0.00  0.00
  007-321.1               1.00   0.00  0.00  0.00  1.00  0.00  0.00  0.00  0.97  0.00
  007-322.1               1.00   0.00  0.00  0.00  1.00  0.00  0.00  0.00  1.00  0.00
  007-323.1               1.02   0.00  0.00  0.00  0.91  0.09  0.00  0.00  1.00  0.00
  007-324.1               1.00   0.00  0.00  0.00  0.00  1.00  0.00  0.00  0.00  0.00
  007-325.1               1.00   0.00  0.00  0.00  0.00  1.00  0.00  0.00  1.00  0.00
  007-326.1               1.14   0.00  1.00  0.00  0.00  0.00  0.00  0.00  0.00  0.00
  007-327.1               1.18   1.00  0.00  0.00  0.00  0.00  0.00  0.00  0.00  0.00
  007-328.1               1.06   1.00  0.00  0.00  0.00  0.00  0.00  0.00  0.00  0.00
  007-329.1               1.00   1.00  0.00  0.00  0.00  0.00  0.00  0.00  0.00  0.00
  007-330.1               1.98   1.00  0.00  0.00  0.00  0.00  0.00  0.00  0.00  0.00
  007-331.1               1.26   1.00  0.00  0.00  0.00  0.00  0.00  0.00  0.00  0.00
  007-332.1               1.00   1.00  0.00  0.00  0.00  0.00  0.00  0.00  0.00  0.00
  007-333.1               1.00   0.00  1.00  0.00  0.00  0.00  0.00  0.00  0.00  0.00
  007-334.1               1.00   0.00  0.00  0.00  0.00  1.00  0.00  0.00  1.00  0.00
  007-335.1               3.08   0.00  0.00  0.00  0.00  1.00  0.00  0.00  0.01  0.00
  007-336.1               1.08   0.00  0.00  0.00  0.97  0.03  0.00  0.00  1.00  0.00
  007-337.1               4.41   0.00  0.00  0.00  1.00  0.00  0.00  0.00  0.81  0.00
  007-338.1               1.00   1.00  0.00  0.00  0.00  0.00  0.00  0.00  0.00  0.00
  007-339.1               1.00   1.00  0.00  0.00  0.00  0.00  0.00  0.00  0.00  0.00
  007-340.1               1.67   0.00  1.00  0.00  0.00  0.00  0.00  0.00  0.00  0.00
  007-341.1               1.27   0.00  0.00  0.00  0.00  1.00  0.00  0.00  1.00  0.00
  007-342.1               2.34   0.00  0.00  0.00  0.00  1.00  0.00  0.00  0.00  0.00
  007-343.1               6.39   0.00  0.00  0.00  0.00  1.00  0.00  0.00  0.00  0.00
  007-344.1               1.64   0.00  0.00  0.00  0.90  0.10  0.00  0.00  1.00  0.00
  007-345.1              19.86   0.00  0.00  0.00  0.72  0.28  0.00  0.00  1.00  0.00
  007-346.1               1.00   0.00  0.00  0.00  0.00  1.00  0.00  0.00  0.00  0.00
  007-347.1               1.00   0.00  0.00  0.00  0.00  1.00  0.00  0.00  0.00  0.00
  007-348.1               1.66   0.00  1.00  0.00  0.00  0.00  0.00  0.00  0.00  0.00
  007-349.1               1.08   1.00  0.00  0.00  0.00  0.00  0.00  0.00  0.00  0.00
  007-351.1               1.00   1.00  0.00  0.00  0.00  0.00  0.00  0.00  0.00  0.00
  007-352.1               1.00   1.00  0.00  0.00  0.00  0.00  0.00  0.00  0.00  0.00
  
  
  *************************
  Conduit Surcharge Summary
  *************************
  
  ----------------------------------------------------------------------------
                                                           Hours        Hours 
                         --------- Hours Full --------   Above Full   Capacity
  Conduit                Both Ends  Upstream  Dnstream   Normal Flow   Limited
  ----------------------------------------------------------------------------
  007-315.1                   0.01    145.00      0.01    139.92         0.01
  007-316.1                 137.06    137.06    145.00    138.92       128.16
  007-317.1                   7.09      7.09    137.06      0.01         0.01
  007-318.1                   0.01      0.01      7.11      0.01         0.01
  007-320.1                   0.01    210.70      0.01     55.55         0.01
  007-321.1                 107.70    107.70    210.70     13.93        13.87
  007-322.1                   9.50      9.50    107.70      0.01         0.01
  007-323.1                   0.01      0.01      9.50      0.01         0.01
  007-336.1                   0.01      0.01     91.77      0.01         0.01
  007-337.1                  91.77     91.77    107.70      0.01         0.01
  007-344.1                   0.01      0.01      7.11      0.01         0.01
  007-345.1                   0.01      0.01    137.06      0.01         0.01
  
  
  ***************************
  Link Pollutant Load Summary
  ***************************
  
  ----------------------------------
                                  TP
  Link                           lbs
  ----------------------------------
  007-308.1                    1.046
  007-309.1                    1.046
  007-310.1                    1.046
  007-311.1                    1.046
  007-312.1                    1.046
  007-313.1                    1.045
  007-314.1                    1.045
  007-315.1                    1.045
  007-316.1                    1.045
  007-317.1                    0.674
  007-318.1                    0.486
  007-319.1                    0.487
  007-320.1                    0.487
  007-321.1                    0.487
  007-322.1                    0.305
  007-323.1                    0.178
  007-324.1                    0.178
  007-325.1                    0.178
  007-326.1                    0.000
  007-327.1                    0.000
  007-328.1                    0.000
  007-329.1                    0.000
  007-330.1                    0.000
  007-331.1                    0.000
  007-332.1                    0.000
  007-333.1                    0.000
  007-334.1                    0.181
  007-335.1                    0.181
  007-336.1                    0.182
  007-337.1                    0.181
  007-338.1                    0.000
  007-339.1                    0.000
  007-340.1                    0.000
  007-341.1                    0.188
  007-342.1                    0.188
  007-343.1                    0.188
  007-344.1                    0.189
  007-345.1                    0.212
  007-346.1                    0.212
  007-347.1                    0.212
  007-348.1                    0.000
  007-349.1                    0.000
  007-351.1                    0.000
  007-352.1                    0.000
  

  Analysis begun on:  Wed Jun 24 17:36:00 2026
  Analysis ended on:  Wed Jun 24 17:36:06 2026
  Total elapsed time: 00:00:06