
  EPA STORM WATER MANAGEMENT MODEL - VERSION 5.2 (Build 5.2.4)
  ------------------------------------------------------------

  
  ****************
  Analysis Options
  ****************
  Flow Units ............... CFS
  Process Models:
    Rainfall/Runoff ........ NO
    RDII ................... NO
    Snowmelt ............... NO
    Groundwater ............ NO
    Flow Routing ........... YES
    Ponding Allowed ........ YES
    Water Quality .......... NO
  Flow Routing Method ...... DYNWAVE
  Surcharge Method ......... EXTRAN
  Starting Date ............ 01/01/2002 00:00:00
  Ending Date .............. 01/01/2002 23:00:00
  Antecedent Dry Days ...... 5.0
  Report Time Step ......... 00:01:00
  Routing Time Step ........ 2.00 sec
  Variable Time Step ....... YES
  Maximum Trials ........... 8
  Number of Threads ........ 1
  Head Tolerance ........... 0.000100 ft
  
  
  **************************        Volume        Volume
  Flow Routing Continuity        acre-feet      10^6 gal
  **************************     ---------     ---------
  Dry Weather Inflow .......       135.367        44.111
  Wet Weather Inflow .......         0.000         0.000
  Groundwater Inflow .......         0.000         0.000
  RDII Inflow ..............         0.000         0.000
  External Inflow ..........         0.000         0.000
  External Outflow .........        39.061        12.729
  Flooding Loss ............        97.155        31.660
  Evaporation Loss .........         0.000         0.000
  Exfiltration Loss ........         0.000         0.000
  Initial Stored Volume ....         0.029         0.010
  Final Stored Volume ......         0.110         0.036
  Continuity Error (%) .....        -0.687
  
  
  *************************
  Highest Continuity Errors
  *************************
  Node 40 (-5.79%)
  Node 52 (-4.21%)
  
  
  ***************************
  Time-Step Critical Elements
  ***************************
  Link 57 (3.61%)
  Link 45 (1.13%)
  
  
  ********************************
  Highest Flow Instability Indexes
  ********************************
  Link 59 (20)
  Link 43 (19)
  Link 25 (7)
  Link 57 (7)
  Link 35 (6)
  
  
  *********************************
  Most Frequent Nonconverging Nodes
  *********************************
  Node 14 (93.82%)
  Node 10 (62.53%)
  Node 44 (61.71%)
  Node 42 (61.19%)
  Node 20 (61.08%)
  
  
  *************************
  Routing Time Step Summary
  *************************
  Minimum Time Step           :     0.15 sec
  Average Time Step           :     1.97 sec
  Maximum Time Step           :     2.00 sec
  % of Time in Steady State   :     0.00
  Average Iterations per Step :     7.94
  % of Steps Not Converging   :    93.82
  Time Step Frequencies       :
      2.000 -  0.437 sec      :    99.98 %
      0.437 -  0.096 sec      :     0.02 %
      0.096 -  0.021 sec      :     0.00 %
      0.021 -  0.005 sec      :     0.00 %
      0.005 -  0.001 sec      :     0.00 %
  
  
  ******************
  Node Depth Summary
  ******************
  
  ---------------------------------------------------------------------------------
                                 Average  Maximum  Maximum  Time of Max    Reported
                                   Depth    Depth      HGL   Occurrence   Max Depth
  Node                 Type         Feet     Feet     Feet  days hr:min        Feet
  ---------------------------------------------------------------------------------
  10                   JUNCTION    11.24    20.82    35.27     0  00:01       11.50
  12                   JUNCTION    10.90    16.97    29.24     0  00:01       11.05
  16                   JUNCTION    12.99    17.99    31.53     0  00:01       13.29
  18                   JUNCTION    13.77    19.11    31.78     0  00:01       14.06
  20                   JUNCTION    11.05    19.18    32.49     0  00:01       11.26
  22                   JUNCTION     8.84     8.85    20.00     0  00:00        8.85
  26                   JUNCTION    21.25    33.20    47.97     0  07:00       31.47
  30                   JUNCTION    21.99    39.67    52.84     0  07:00       33.07
  36                   JUNCTION     1.69     1.69    20.00     0  00:00        1.69
  40                   JUNCTION     8.09    22.78    40.38     0  01:56       17.32
  42                   JUNCTION    13.00    20.52    33.09     0  00:01       13.26
  44                   JUNCTION    12.32    21.97    34.44     0  00:01       12.54
  46                   JUNCTION    11.37    19.06    31.43     0  00:01       11.55
  48                   JUNCTION     1.29     1.29    20.00     0  00:00        1.29
  50                   JUNCTION     2.08     2.08    20.00     0  00:00        2.08
  52                   JUNCTION     7.88    15.31    32.46     0  22:10       14.44
  14                   OUTFALL      1.00     1.00    11.10     0  00:00        1.00
  24                   DIVIDER      8.40     9.00    23.70     0  00:01        9.00
  8000                 STORAGE      7.56    10.13    23.77     0  07:02       10.13
  8002                 STORAGE      1.52     2.03    19.73     0  22:30        2.02
  8004                 STORAGE      1.52     2.04    19.04     0  06:38        2.04
  9000                 STORAGE      3.07     3.42    17.07     0  07:41        3.42
  
  
  *******************
  Node Inflow Summary
  *******************
  
  -------------------------------------------------------------------------------------------------
                                  Maximum  Maximum                  Lateral       Total        Flow
                                  Lateral    Total  Time of Max      Inflow      Inflow     Balance
                                   Inflow   Inflow   Occurrence      Volume      Volume       Error
  Node                 Type           CFS      CFS  days hr:min    10^6 gal    10^6 gal     Percent
  -------------------------------------------------------------------------------------------------
  10                   JUNCTION      0.00    11.54     0  00:01           0        2.81       0.015
  12                   JUNCTION      0.00     8.29     0  07:38           0        5.01       0.016
  16                   JUNCTION      0.00    21.00     0  00:00           0        5.01       0.019
  18                   JUNCTION      0.00    21.09     0  00:01           0        5.01       0.037
  20                   JUNCTION      0.00     4.65     0  07:48           0        2.81       0.022
  22                   JUNCTION     18.00    44.42     0  07:00         6.3        19.5       0.007
  26                   JUNCTION      0.00    21.00     0  00:00           0        1.93       0.023
  30                   JUNCTION     18.00    18.11     0  07:00         6.3        8.23       0.012
  36                   JUNCTION     18.00    18.00     0  07:00         6.3         6.3       0.002
  40                   JUNCTION      0.00    42.00     0  00:00           0        2.93      -5.474
  42                   JUNCTION      0.00    11.13     0  00:01           0         2.2       0.030
  44                   JUNCTION      0.00     4.61     0  00:01           0         2.2       0.031
  46                   JUNCTION      0.00     4.54     0  00:01           0         2.2       0.028
  48                   JUNCTION     18.00    18.00     0  07:00         6.3         6.3       0.004
  50                   JUNCTION     18.00    18.00     0  07:00         6.3        6.34       0.010
  52                   JUNCTION      0.00    42.00     0  00:00           0        3.86      -4.044
  14                   OUTFALL      18.00    28.38     0  07:00         6.3        12.7       0.000
  24                   DIVIDER      18.00    45.46     0  07:32         6.3        13.4       0.186
  8000                 STORAGE       0.00     7.17     0  00:01           0        1.94       0.076
  8002                 STORAGE       0.00     6.08     0  15:30           0        2.92       0.052
  8004                 STORAGE       0.00     7.22     0  19:49           0        3.85       0.050
  9000                 STORAGE       0.00     9.54     0  00:01           0        5.02       0.009
  
  
  **********************
  Node Surcharge Summary
  **********************
  
  Surcharging occurs when water rises above the top of the highest conduit.
  ---------------------------------------------------------------------
                                               Max. Height   Min. Depth
                                   Hours       Above Crown    Below Rim
  Node                 Type      Surcharged           Feet         Feet
  ---------------------------------------------------------------------
  10                   JUNCTION       22.97         19.815        0.000
  12                   JUNCTION       22.98         15.973        0.000
  16                   JUNCTION       22.97         15.988        0.000
  18                   JUNCTION       22.97         17.110        0.000
  20                   JUNCTION       22.97         18.178        0.000
  22                   JUNCTION       22.99          7.852        0.000
  26                   JUNCTION       22.99         32.205        0.000
  30                   JUNCTION       22.99         38.672        0.000
  36                   JUNCTION       23.00          0.693        0.000
  40                   JUNCTION       22.08         21.778        0.000
  42                   JUNCTION       22.97         19.522        0.000
  44                   JUNCTION       22.97         20.972        0.000
  46                   JUNCTION       22.98         18.058        0.000
  48                   JUNCTION       23.00          0.286        0.000
  50                   JUNCTION       23.00          1.083        0.000
  52                   JUNCTION       22.52         14.312        0.000
  24                   DIVIDER        22.99          8.000        0.000
  
  
  *********************
  Node Flooding Summary
  *********************
  
  Flooding refers to all water that overflows a node, whether it ponds or not.
  --------------------------------------------------------------------------
                                                             Total   Maximum
                                 Maximum   Time of Max       Flood    Ponded
                        Hours       Rate    Occurrence      Volume     Depth
  Node                 Flooded       CFS   days hr:min    10^6 gal      Feet
  --------------------------------------------------------------------------
  22                     22.97     34.01      0  07:00      13.108     0.000
  36                     23.00     14.72      0  07:08       3.380     0.000
  48                     23.00     18.00      0  08:00       6.263     0.000
  50                     22.61     12.76      0  07:10       2.494     0.000
  24                     17.60     37.15      0  07:19       6.427     0.000
  
  
  **********************
  Storage Volume Summary
  **********************
  
  ------------------------------------------------------------------------------------------------
                         Average    Avg   Evap  Exfil     Maximum    Max    Time of Max    Maximum
                          Volume   Pcnt   Pcnt   Pcnt      Volume   Pcnt     Occurrence    Outflow
  Storage Unit          1000 ftł   Full   Loss   Loss    1000 ftł   Full    days hr:min        CFS
  ------------------------------------------------------------------------------------------------
  8000                     2.107   34.4    0.0    0.0       2.821   46.0       0  07:02      21.00
  8002                     0.422    6.9    0.0    0.0       0.565    9.2       0  22:30      42.00
  8004                     0.423    6.9    0.0    0.0       0.569    9.3       0  06:38      42.00
  9000                     0.855   13.9    0.0    0.0       0.954   15.6       0  07:41      21.00
  
  
  ***********************
  Outfall Loading Summary
  ***********************
  
  -----------------------------------------------------------
                         Flow       Avg       Max       Total
                         Freq      Flow      Flow      Volume
  Outfall Node           Pcnt       CFS       CFS    10^6 gal
  -----------------------------------------------------------
  14                   100.00     20.55     28.38      12.728
  -----------------------------------------------------------
  System               100.00     20.55     28.38      12.728
  
  
  ********************
  Link Flow Summary
  ********************
  
  -----------------------------------------------------------------------------
                                 Maximum  Time of Max   Maximum    Max/    Max/
                                  |Flow|   Occurrence   |Veloc|    Full    Full
  Link                 Type          CFS  days hr:min    ft/sec    Flow   Depth
  -----------------------------------------------------------------------------
  11                   CONDUIT      4.65     0  07:48      5.92    1.05    1.00
  13                   CONDUIT      8.29     0  07:18     10.55    1.70    1.00
  17                   CONDUIT     21.01     0  00:01     13.79    0.78    1.00
  19                   CONDUIT      8.94     0  00:01     13.57    1.16    1.00
  21                   CONDUIT      4.65     0  07:55      5.92    1.04    1.00
  23                   CONDUIT     10.38     0  00:18     13.22    2.91    1.00
  25                   CONDUIT      9.54     0  00:01     12.15    2.88    1.00
  31                   CONDUIT      4.28     0  00:52      5.93    0.89    1.00
  33                   CONDUIT     18.13     0  07:00     23.08    3.81    1.00
  35                   CONDUIT      7.17     0  00:01      9.12    2.82    1.00
  43                   CONDUIT     11.81     0  12:23     15.03    1.44    1.00
  45                   CONDUIT      6.08     0  15:30      7.74    1.44    1.00
  47                   CONDUIT      8.34     0  00:01     10.96    7.12    1.00
  49                   CONDUIT      3.64     0  08:21      4.63    2.96    1.00
  51                   CONDUIT      4.61     0  00:01      6.14    4.36    1.00
  53                   CONDUIT      4.54     0  00:01      7.18    3.13    1.00
  55                   CONDUIT      4.80     0  00:00      7.20    1.07    1.00
  57                   CONDUIT      7.22     0  19:49      9.19    1.47    1.00
  59                   CONDUIT     15.70     0  00:01     19.99    1.38    1.00
  5000                 PUMP        21.00     0  00:00              1.00
  5002                 PUMP        21.00     0  00:00              1.00
  5004                 PUMP        21.00     0  00:00              1.00
  5006                 PUMP        21.00     0  00:00              1.00
  5008                 PUMP        21.00     0  00:00              1.00
  5010                 PUMP        21.00     0  00:00              1.00
  
  
  ***************************
  Flow Classification Summary
  ***************************
  
  -------------------------------------------------------------------------------------
                      Adjusted    ---------- Fraction of Time in Flow Class ---------- 
                       /Actual         Up    Down  Sub   Sup   Up    Down  Norm  Inlet 
  Conduit               Length    Dry  Dry   Dry   Crit  Crit  Crit  Crit  Ltd   Ctrl  
  -------------------------------------------------------------------------------------
  11                      1.00   0.00  0.00  0.00  1.00  0.00  0.00  0.00  0.00  0.00
  13                      1.00   0.00  0.00  0.00  1.00  0.00  0.00  0.00  0.00  0.00
  17                      1.00   0.00  0.00  0.00  1.00  0.00  0.00  0.00  0.00  0.00
  19                      1.00   0.00  0.00  0.00  1.00  0.00  0.00  0.00  0.00  0.00
  21                      1.00   0.00  0.00  0.00  1.00  0.00  0.00  0.00  0.00  0.00
  23                      1.00   0.00  0.00  0.00  1.00  0.00  0.00  0.00  0.00  0.00
  25                      1.00   0.00  0.00  0.00  1.00  0.00  0.00  0.00  0.00  0.00
  31                      1.00   0.00  0.00  0.00  1.00  0.00  0.00  0.00  0.00  0.00
  33                      1.00   0.00  0.00  0.00  1.00  0.00  0.00  0.00  0.00  0.00
  35                      1.00   0.00  0.00  0.00  1.00  0.00  0.00  0.00  0.00  0.00
  43                      1.00   0.00  0.00  0.00  1.00  0.00  0.00  0.00  0.00  0.00
  45                      1.00   0.00  0.00  0.00  1.00  0.00  0.00  0.00  0.00  0.00
  47                      1.00   0.00  0.00  0.00  1.00  0.00  0.00  0.00  0.00  0.00
  49                      1.00   0.00  0.00  0.00  1.00  0.00  0.00  0.00  0.00  0.00
  51                      1.00   0.00  0.00  0.00  1.00  0.00  0.00  0.00  0.00  0.00
  53                      1.00   0.00  0.00  0.00  1.00  0.00  0.00  0.00  0.00  0.00
  55                      1.00   0.00  0.00  0.00  1.00  0.00  0.00  0.00  0.00  0.00
  57                      1.00   0.00  0.00  0.00  0.99  0.01  0.00  0.00  0.00  0.00
  59                      1.00   0.00  0.00  0.00  1.00  0.00  0.00  0.00  0.00  0.00
  
  
  *************************
  Conduit Surcharge Summary
  *************************
  
  ----------------------------------------------------------------------------
                                                           Hours        Hours 
                         --------- Hours Full --------   Above Full   Capacity
  Conduit                Both Ends  Upstream  Dnstream   Normal Flow   Limited
  ----------------------------------------------------------------------------
  11                         22.97     22.97     22.97     18.90        22.92
  13                         22.98     22.98     22.99     22.98        22.97
  17                         22.97     22.97     22.97      0.01         0.01
  19                         22.97     22.97     22.97      0.01         0.01
  21                         22.97     22.97     22.98     18.21        22.90
  23                         22.99     22.99     22.99     22.99        22.99
  25                         22.99     22.99     23.00     22.99        22.99
  31                         22.99     22.99     22.99      0.01         0.01
  33                         22.99     22.99     22.99     22.99        22.99
  35                         22.99     22.99     23.00     16.79        16.11
  43                         20.67     20.67     22.99      9.37         9.82
  45                         22.17     23.00     22.17     15.15        14.12
  47                         22.97     22.97     22.97     22.97        22.97
  49                         22.97     22.97     22.97     22.97        22.97
  51                         22.97     22.97     22.98     22.98        22.97
  53                         22.98     22.98     22.98     22.98        22.97
  55                         23.00     23.00     23.00      0.01         0.01
  57                         22.02     23.00     22.02     23.00        22.02
  59                         21.70     21.70     22.99      9.27         9.81
  
  
  ***************
  Pumping Summary
  ***************
  
  ---------------------------------------------------------------------------------------------------------
                                                  Min       Avg       Max     Total     Power    % Time Off
                        Percent   Number of      Flow      Flow      Flow    Volume     Usage    Pump Curve
  Pump                 Utilized   Start-Ups       CFS       CFS       CFS  10^6 gal     Kw-hr    Low   High
  ---------------------------------------------------------------------------------------------------------
  5000                    99.90           2      0.00      8.10     21.00     5.013    154.82    0.0    0.0
  5002                    95.54           3      0.00      3.26     21.00     1.929     85.63    0.0    0.0
  5004                    42.52         767      0.00      5.55     21.00     1.461     49.93    0.0    0.0
  5006                    42.59         974      0.00      7.35     21.00     1.938     61.64    0.0    0.0
  5008                    42.52         767      0.00      5.55     21.00     1.461     49.93    0.0    0.0
  5010                    42.59         974      0.00      7.35     21.00     1.938     61.64    0.0    0.0
  

  Analysis begun on:  Wed Jun 24 17:36:41 2026
  Analysis ended on:  Wed Jun 24 17:36:41 2026
  Total elapsed time: < 1 sec