
  EPA STORM WATER MANAGEMENT MODEL - VERSION 5.2 (Build 5.2.4)
  ------------------------------------------------------------

  Scenario Run :  BASE 
  WARNING 04: minimum elevation drop used for Conduit 780
  WARNING 04: minimum elevation drop used for Conduit 781
  WARNING 04: minimum elevation drop used for Conduit 782
  WARNING 04: minimum elevation drop used for Conduit 783
  WARNING 04: minimum elevation drop used for Conduit 784
  WARNING 04: minimum elevation drop used for Conduit 797
  
  ****************
  Analysis Options
  ****************
  Flow Units ............... CFS
  Process Models:
    Rainfall/Runoff ........ NO
    RDII ................... NO
    Snowmelt ............... NO
    Groundwater ............ NO
    Flow Routing ........... YES
    Ponding Allowed ........ NO
    Water Quality .......... NO
  Flow Routing Method ...... DYNWAVE
  Surcharge Method ......... EXTRAN
  Starting Date ............ 07/23/2010 17:40:00
  Ending Date .............. 07/25/2010 20:00:00
  Antecedent Dry Days ...... 5.0
  Report Time Step ......... 00:01:00
  Routing Time Step ........ 1.00 sec
  Variable Time Step ....... YES
  Maximum Trials ........... 8
  Number of Threads ........ 1
  Head Tolerance ........... 0.000100 ft
  
  
  **************************        Volume        Volume
  Flow Routing Continuity        acre-feet      10^6 gal
  **************************     ---------     ---------
  Dry Weather Inflow .......         0.000         0.000
  Wet Weather Inflow .......         0.000         0.000
  Groundwater Inflow .......         0.000         0.000
  RDII Inflow ..............         0.000         0.000
  External Inflow ..........      6699.665      2183.186
  External Outflow .........         0.000         0.000
  Flooding Loss ............       236.360        77.022
  Evaporation Loss .........         0.000         0.000
  Exfiltration Loss ........         0.000         0.000
  Initial Stored Volume ....         0.001         0.000
  Final Stored Volume ......      6370.060      2075.779
  Continuity Error (%) .....         1.392
  
  
  *************************
  Highest Continuity Errors
  *************************
  Node CALUMET_PS (89.22%)
  Node 333 (36.80%)
  Node 288 (30.70%)
  Node 623 (28.57%)
  Node 298 (28.34%)
  
  
  ***************************
  Time-Step Critical Elements
  ***************************
  Link 607 (18.31%)
  
  
  ********************************
  Highest Flow Instability Indexes
  ********************************
  Link 302 (48)
  Link 307 (46)
  Link 600 (46)
  Link 733 (45)
  Link 808 (44)
  
  
  *********************************
  Most Frequent Nonconverging Nodes
  *********************************
  Node DUMMY_OUTFALL (72.25%)
  Node CDS-12 (40.23%)
  Node CDS-14 (38.29%)
  Node 554 (36.56%)
  Node CDS-18 (36.38%)
  
  
  *************************
  Routing Time Step Summary
  *************************
  Minimum Time Step           :     0.14 sec
  Average Time Step           :     0.97 sec
  Maximum Time Step           :     1.00 sec
  % of Time in Steady State   :     0.00
  Average Iterations per Step :     7.09
  % of Steps Not Converging   :    72.25
  Time Step Frequencies       :
      1.000 -  0.251 sec      :    99.97 %
      0.251 -  0.063 sec      :     0.03 %
      0.063 -  0.016 sec      :     0.00 %
      0.016 -  0.004 sec      :     0.00 %
      0.004 -  0.001 sec      :     0.00 %
  
  
  ******************
  Node Depth Summary
  ******************
  
  ---------------------------------------------------------------------------------
                                 Average  Maximum  Maximum  Time of Max    Reported
                                   Depth    Depth      HGL   Occurrence   Max Depth
  Node                 Type         Feet     Feet     Feet  days hr:min        Feet
  ---------------------------------------------------------------------------------
  105                  JUNCTION    57.66    89.93  -219.07     2  02:19       89.93
  126                  JUNCTION    59.53    92.21  -219.06     2  02:19       92.21
  137                  JUNCTION     0.00     0.00  -193.85     0  00:00        0.00
  170                  JUNCTION    63.16   101.16  -214.08     0  10:34       96.18
  221                  JUNCTION    32.64    59.36  -219.05     2  02:20       59.36
  230                  JUNCTION    66.38   162.98  -155.57     0  10:39       99.49
  266                  JUNCTION    67.02   100.05  -219.05     2  02:20      100.05
  272                  JUNCTION    67.60   100.57  -219.05     2  02:20      100.57
  275                  JUNCTION    61.61    94.18  -219.05     2  02:20       94.18
  280                  JUNCTION    68.36   101.26  -219.05     2  02:19      101.26
  282                  JUNCTION    61.36    93.90  -219.05     2  02:20       93.90
  288                  JUNCTION    66.54    99.73  -219.05     2  02:19       99.73
  289                  JUNCTION    66.96    99.74  -219.05     2  02:19       99.74
  291                  JUNCTION    66.81    99.55  -219.05     2  02:20       99.55
  293                  JUNCTION    53.76    85.21  -219.05     2  02:20       85.21
  294                  JUNCTION    54.83    86.32  -219.05     2  02:19       86.32
  296                  JUNCTION    68.39   101.32  -219.05     2  02:20      101.32
  298                  JUNCTION    49.70    80.50  -219.05     2  02:19       80.50
  324                  JUNCTION    62.56    94.68  -219.04     2  02:20       94.68
  333                  JUNCTION    48.23    78.76  -219.05     2  02:19       78.76
  353                  JUNCTION    57.68    89.57  -219.05     2  02:19       89.57
  363                  JUNCTION    69.69   102.71  -219.05     2  02:20      102.71
  364                  JUNCTION    58.32    90.31  -219.05     2  02:19       90.31
  374                  JUNCTION   229.37   297.08     0.02     0  14:45      297.07
  394                  JUNCTION     0.00     0.00  -206.12     0  00:00        0.00
  400                  JUNCTION     3.81     7.69  -218.91     2  02:20        7.69
  417                  JUNCTION    16.10    68.57  -157.25     0  08:05       55.10
  424                  JUNCTION    15.89    68.18  -157.43     0  08:05       54.89
  430                  JUNCTION    21.29    42.65  -218.95     2  02:19       42.65
  450                  JUNCTION     6.33    45.68  -154.79     0  08:05       29.78
  463                  JUNCTION   228.25   295.87     0.06     0  14:45      295.85
  497                  JUNCTION   226.27   293.71     0.11     0  14:45      293.67
  514                  JUNCTION    71.39   104.51  -219.05     2  02:20      104.51
  522                  JUNCTION    49.22    86.62  -212.04     0  10:38       79.61
  554                  JUNCTION    72.49   105.66  -219.05     2  02:20      105.66
  558                  JUNCTION    68.44   101.38  -219.05     2  02:20      101.38
  56                   JUNCTION     1.16     5.82  -142.41     1  04:55        5.82
  61                   JUNCTION     1.07     3.01  -265.85     0  13:55        3.01
  620                  JUNCTION   220.90   287.67     0.26     0  14:45      287.57
  623                  JUNCTION   208.88   273.97     0.38     0  11:52      273.78
  68                   JUNCTION     0.00     0.00  -285.65     0  09:01        0.00
  684                  JUNCTION     3.34    15.11  -169.95     0  09:32       15.11
  685                  JUNCTION     0.77     6.92  -169.74     0  09:28        6.92
  687                  JUNCTION     1.36     7.08  -169.53     0  09:35        7.06
  69                   JUNCTION    55.39    87.71  -219.07     2  02:20       87.71
  700                  JUNCTION     2.70    11.31  -169.87     0  09:37       11.31
  710                  JUNCTION     2.47     8.84  -169.71     0  09:36        8.84
  722                  JUNCTION     2.27     7.02  -168.51     0  07:49        7.02
  731                  JUNCTION     2.22     6.91  -166.67     0  07:46        6.91
  734                  JUNCTION     0.82     2.46  -163.34     0  07:45        2.46
  765                  JUNCTION     2.05     6.73  -166.67     0  07:46        6.73
  769                  JUNCTION   211.96   277.25     0.45     0  14:45      277.12
  771                  JUNCTION   200.33   263.65     0.46     0  14:45      263.51
  84                   JUNCTION    56.47    88.84  -219.07     2  02:19       88.84
  91                   JUNCTION    58.01    90.55  -219.07     2  02:20       90.55
  CALUMET_PS           JUNCTION    72.73   105.92  -219.05     2  02:20      105.92
  CDS-10               JUNCTION    32.87    57.90  -218.97     2  02:20       57.90
  CDS-105TH            JUNCTION     2.74     8.98  -156.80     0  07:45        8.98
  CDS-107TH            JUNCTION     2.26     7.01  -168.44     0  07:49        7.01
  CDS-11               JUNCTION    35.50    61.29  -218.98     2  02:20       61.29
  CDS-110TH            JUNCTION     2.46     8.77  -169.71     0  09:36        8.77
  CDS-112TH            JUNCTION     2.70    11.23  -169.87     0  09:37       11.23
  CDS-116TH            JUNCTION     1.25     4.36  -168.95     0  12:48        4.36
  CDS-117TH            JUNCTION     3.36    15.63  -169.83     0  09:33       15.61
  CDS-12               JUNCTION    49.72   125.73  -172.30     0  10:45       79.02
  CDS-127TH            JUNCTION     5.33   210.14    13.69     0  08:05       26.02
  CDS-13               JUNCTION    66.89    99.71  -219.05     2  02:20       99.71
  CDS-14               JUNCTION    59.54    91.65  -219.05     2  02:19       91.65
  CDS-15-1             JUNCTION    58.89    90.22  -219.03     2  02:20       90.22
  CDS-15-2             JUNCTION    68.58   101.53  -219.05     2  02:20      101.53
  CDS-16               JUNCTION    58.16    90.12  -219.05     2  02:19       90.12
  CDS-17               JUNCTION    57.00    88.79  -219.05     2  02:19       88.79
  CDS-18               JUNCTION    59.97   294.83   -16.50     0  10:42       92.28
  CDS-19               JUNCTION    56.10    97.44  -209.43     0  11:04       87.82
  CDS-2                JUNCTION     6.14    14.76  -218.91     2  02:20       14.76
  CDS-20               JUNCTION    53.81    85.12  -219.05     2  02:19       85.12
  CDS-21               JUNCTION    39.56    68.61  -218.39     0  11:08       67.95
  CDS-22               JUNCTION    38.99    67.27  -219.05     2  02:19       67.27
  CDS-23               JUNCTION    35.71    63.30  -219.05     2  02:19       63.30
  CDS-24               JUNCTION    31.96    58.47  -219.05     2  02:19       58.47
  CDS-25               JUNCTION    48.84    87.04  -211.18     0  10:38       79.17
  CDS-26               JUNCTION   225.75   293.14     0.13     0  14:45      293.10
  CDS-28               JUNCTION   208.84   273.92     0.39     0  11:52      273.73
  CDS-32               JUNCTION   200.04   263.22     0.46     0  14:45      263.08
  CDS-33               JUNCTION   204.66   268.72     0.58     0  14:45      268.59
  CDS-34               JUNCTION   205.59   269.71     0.58     0  14:45      269.57
  CDS-36               JUNCTION   202.16   265.93     0.58     0  14:45      265.83
  CDS-39               JUNCTION     0.93     3.43  -137.66     1  04:55        3.43
  CDS-4                JUNCTION    11.23    26.81  -218.92     2  02:20       26.81
  CDS-41               JUNCTION     1.21     6.11  -146.77     0  13:42        6.11
  CDS-42               JUNCTION     1.61     7.99  -148.46     0  13:43        7.99
  CDS-43               JUNCTION     1.63     8.06  -152.31     0  13:46        8.06
  CDS-45               JUNCTION     1.74     8.54  -163.14     0  13:55        8.54
  CDS-47               JUNCTION    60.75    93.59  -219.06     2  02:19       93.59
  CDS-48               JUNCTION    58.94    91.56  -219.07     2  02:19       91.56
  CDS-5                JUNCTION    12.51    29.04  -218.92     2  02:20       29.04
  CDS-51               JUNCTION     1.34     6.26  -171.25     1  05:06        6.26
  CDS-52               JUNCTION     1.15     5.73  -157.34     1  05:06        5.73
  CDS-53               JUNCTION     1.15     5.78  -136.82     1  04:53        5.78
  CDS-55               JUNCTION     1.12     5.54  -131.87     1  04:54        5.54
  CDS-57               JUNCTION     0.67     2.51  -263.75     0  13:31        2.51
  CDS-59               JUNCTION    53.25    85.43  -219.07     2  02:19       85.42
  CDS-6                JUNCTION    13.43    30.83  -218.93     2  02:20       30.83
  CDS-7                JUNCTION    20.55    41.50  -218.94     2  02:19       41.49
  CDS-8                JUNCTION    24.28    46.54  -218.95     2  02:19       46.54
  CDS-9                JUNCTION    24.25    46.66  -218.95     2  02:20       46.66
  CDS-C1               JUNCTION    40.48    69.64  -219.07     2  02:20       69.64
  CDS-CENTRALPARK      JUNCTION     2.51     9.22  -151.42     0  07:43        9.22
  CDS-HAMLIN           JUNCTION     2.52     9.14  -154.18     0  07:44        9.14
  CDS-HOMAN            JUNCTION     2.51     9.29  -148.77     0  07:42        9.29
  CDS-LAWNDALE         JUNCTION     2.51     9.18  -152.80     0  07:44        9.18
  CDS-SPAULDING        JUNCTION     2.25     7.54  -146.54     0  07:39        7.54
  CDS-SPRINGFIELD      JUNCTION     2.55     9.07  -155.57     0  07:45        9.07
  CDWF-27              JUNCTION   223.25   290.35     0.19     0  14:45      290.28
  CDWF-30              JUNCTION   217.56   283.81     0.33     0  14:45      283.70
  CRFD_IG_DS           JUNCTION     3.72     7.22  -218.92     2  02:20        7.22
  CRFD_IG_US           JUNCTION    16.27    68.80  -157.20     0  08:05       55.28
  CSRS                 JUNCTION    15.28    66.80  -158.18     0  08:05       54.27
  DUMMY_OUTFALL        OUTFALL      0.00     0.00     0.00     0  00:00        0.00
  RES                  STORAGE     47.01    78.42  -219.08     2  02:20       78.42
  STO-334              STORAGE     48.22    78.75  -219.05     2  02:19       78.75
  STO-335              STORAGE    229.98   297.72     0.00     0  11:52      297.72
  
  
  *******************
  Node Inflow Summary
  *******************
  
  -------------------------------------------------------------------------------------------------
                                  Maximum  Maximum                  Lateral       Total        Flow
                                  Lateral    Total  Time of Max      Inflow      Inflow     Balance
                                   Inflow   Inflow   Occurrence      Volume      Volume       Error
  Node                 Type           CFS      CFS  days hr:min    10^6 gal    10^6 gal     Percent
  -------------------------------------------------------------------------------------------------
  105                  JUNCTION      0.00  2062.64     0  13:59           0         317       0.545
  126                  JUNCTION      0.00  4148.29     0  13:41           0    1.34e+03       0.179
  137                  JUNCTION      0.00     0.00     0  00:00           0           0       0.000 gal
  170                  JUNCTION      0.00  4110.37     0  13:41           0    1.36e+03       1.305
  221                  JUNCTION      0.00   702.03     1  05:15           0         105       2.596
  230                  JUNCTION      0.00  4110.37     0  13:41           0    1.38e+03       1.346
  266                  JUNCTION      0.00  4140.99     0  10:38           0    1.46e+03       2.355
  272                  JUNCTION      0.00  3977.01     0  08:06           0    1.22e+03       0.105
  275                  JUNCTION      0.00   531.37     0  10:38           0        2.12      27.289
  280                  JUNCTION      0.00  3966.75     0  08:06           0    1.24e+03       0.168
  282                  JUNCTION      0.00   361.17     0  10:38           0        1.35      43.096
  288                  JUNCTION      0.00   105.50     0  10:38           0       0.463      44.292
  289                  JUNCTION      0.00  2866.95     0  08:06           0    1.01e+03       0.079
  291                  JUNCTION      0.00  2867.01     0  08:06           0    1.02e+03       0.238
  293                  JUNCTION      0.00   252.29     0  10:41           0       0.366     455.893
  294                  JUNCTION      0.00  1082.14     0  10:56           0         127       8.446
  296                  JUNCTION      0.00  1189.14     0  08:09           0         240       0.591
  298                  JUNCTION      0.00   677.46     0  10:57           0        16.1      39.555
  324                  JUNCTION      0.00  2868.32     0  08:06           0    1.02e+03       0.436
  333                  JUNCTION      0.00   575.01     0  10:40           0        9.14      58.221
  353                  JUNCTION      0.00    74.80     1  04:36           0        8.73       1.362
  363                  JUNCTION      0.00  1185.46     0  08:09           0         241       3.067
  364                  JUNCTION      0.00    92.30     0  07:28           0        10.4       0.711
  374                  JUNCTION      0.00   961.52     0  11:19           0        91.5       4.052
  394                  JUNCTION      0.00     0.00     0  00:00           0           0       0.000 gal
  400                  JUNCTION      0.00   784.09     0  08:05           0         430       0.261
  417                  JUNCTION      0.00   789.57     0  08:05           0         257       0.028
  424                  JUNCTION      0.00   871.20     0  08:05           0         257       0.052
  430                  JUNCTION      0.00  1302.59     0  14:09           0         670       0.333
  450                  JUNCTION      0.00  1121.50     1  04:44           0         204       0.061
  463                  JUNCTION      0.00   956.05     0  11:19           0        96.9       6.128
  497                  JUNCTION      0.00   940.72     0  11:19           0         101       4.479
  514                  JUNCTION      0.00  1116.88     0  08:09           0         231       3.719
  522                  JUNCTION      0.00   105.98     0  07:53           0        11.4       8.474
  554                  JUNCTION      0.00   977.50     0  08:09           0         209       1.951
  558                  JUNCTION      0.00   975.16     0  08:09           0         207       1.182
  56                   JUNCTION      0.00   700.68     1  04:53           0        86.3      -0.111
  61                   JUNCTION      0.00    80.42     0  13:32           0        9.47       1.516
  620                  JUNCTION      0.00  1170.35     0  07:19           0         130      14.571
  623                  JUNCTION      0.00   213.39     0  07:53           0        9.28      40.003
  68                   JUNCTION      0.00    59.58     0  13:55           0        9.33      -0.000
  684                  JUNCTION      0.00  1008.82     0  13:05           0         205       0.052
  685                  JUNCTION      0.00   285.04     0  09:09           0          38       0.008
  687                  JUNCTION      0.00   202.39     0  09:17           0          37       0.072
  69                   JUNCTION      0.00  6210.28     0  13:52           0    1.64e+03       0.683
  700                  JUNCTION      0.00   826.22     0  07:52           0         168      -0.016
  710                  JUNCTION      0.00   827.31     0  07:50           0         168      -0.009
  722                  JUNCTION      0.00   809.20     0  07:47           0         165      -0.004
  731                  JUNCTION      0.00   778.26     0  07:45           0         161       0.005
  734                  JUNCTION      0.00   778.26     0  07:45           0         161       0.001
  765                  JUNCTION      0.00     2.12     0  00:36           0      0.0847       1.420
  769                  JUNCTION      0.00  1260.97     0  07:30           0         173      20.412
  771                  JUNCTION      0.00   335.20     0  07:29           0        24.7      12.352
  84                   JUNCTION      0.00  6151.06     0  13:52           0    1.64e+03       0.586
  91                   JUNCTION      0.00  6151.06     0  13:52           0    1.66e+03       0.689
  CALUMET_PS           JUNCTION      0.00    46.35     0  03:04           0        1.06     827.431
  CDS-10               JUNCTION    810.62  2196.46     0  08:02         223         920       0.747
  CDS-105TH            JUNCTION      0.00   778.27     0  07:45           0         161       0.006
  CDS-107TH            JUNCTION     32.73   809.73     0  07:47        3.71         165       0.020
  CDS-11               JUNCTION    305.37  2498.08     0  08:03          45         958       0.953
  CDS-110TH            JUNCTION     19.91   828.02     0  07:49        3.18         168       0.040
  CDS-112TH            JUNCTION      0.00   827.18     0  07:51           0         168       0.040
  CDS-116TH            JUNCTION    159.83   159.83     0  07:54        36.1        36.1      -0.081
  CDS-117TH            JUNCTION      0.00   981.37     0  07:57           0         204      -0.090
  CDS-12               JUNCTION    375.94  2866.89     0  08:04        63.4    1.01e+03       1.307
  CDS-127TH            JUNCTION      0.00   976.38     0  08:02           0         204       0.363
  CDS-13               JUNCTION    968.13   968.13     0  08:04         208         208       0.954
  CDS-14               JUNCTION     80.08    80.08     0  07:33        11.3        11.3       3.842
  CDS-15-1             JUNCTION    178.52  2997.31     0  08:04        27.4    1.03e+03       0.714
  CDS-15-2             JUNCTION      0.00  1187.47     0  08:09           0         240       1.411
  CDS-16               JUNCTION     21.30    92.49     0  07:28        1.78        10.4       0.594
  CDS-17               JUNCTION     74.80    74.80     1  04:36         8.8         8.8       0.819
  CDS-18               JUNCTION    309.39  1837.50     0  08:10         165         312      15.332
  CDS-19               JUNCTION      0.00  1021.57     0  08:14           0         131      17.365
  CDS-2                JUNCTION     74.68   803.48     0  13:36        41.2         470       1.320
  CDS-20               JUNCTION     37.91   757.94     1  05:15        3.09         115       4.387
  CDS-21               JUNCTION      0.00   751.48     1  05:16           0         113       1.662
  CDS-22               JUNCTION    160.22   751.47     1  05:16        16.3         115       2.409
  CDS-23               JUNCTION      7.80   702.04     1  05:15       0.419         103       4.568
  CDS-24               JUNCTION    702.04   702.04     1  05:15         105         105       0.475
  CDS-25               JUNCTION     81.63    81.63     0  07:27        11.3        11.3       0.264
  CDS-26               JUNCTION     56.09   925.43     0  11:19        11.2         109       6.277
  CDS-28               JUNCTION     87.03   155.96     0  11:21        7.91        7.92       1.523
  CDS-32               JUNCTION    335.19   335.19     0  07:29        23.4        23.4       1.491
  CDS-33               JUNCTION    160.44   495.89     0  11:16        11.8        37.3      23.449
  CDS-34               JUNCTION    598.27   931.06     0  07:20         139         170      10.136
  CDS-36               JUNCTION    214.18   649.30     0  11:16        21.7        24.3      27.255
  CDS-39               JUNCTION    245.88   245.88     1  04:51        53.5        53.5      -0.207
  CDS-4                JUNCTION    161.59   962.85     0  13:47          81         545       1.242
  CDS-41               JUNCTION    539.14   781.84     0  13:39        51.4         105       0.100
  CDS-42               JUNCTION    476.61  1251.93     0  13:42        76.1         181      -0.009
  CDS-43               JUNCTION     28.47  1275.97     0  13:43        2.22         183      -0.085
  CDS-45               JUNCTION    155.45  1424.53     0  13:46        15.5         199       0.092
  CDS-47               JUNCTION     38.29  4148.28     0  13:41        5.37    1.35e+03       0.650
  CDS-48               JUNCTION     22.69  4166.17     0  13:41        11.7    1.35e+03       0.648
  CDS-5                JUNCTION    197.05  1177.92     1  05:28         118         657       0.268
  CDS-51               JUNCTION    307.47   837.73     1  04:56        23.5         110      -0.046
  CDS-52               JUNCTION      0.00   702.09     1  04:58           0        86.4       0.333
  CDS-53               JUNCTION     52.50   701.57     1  04:51        2.83        86.3      -0.019
  CDS-55               JUNCTION    659.96   659.96     1  04:53        83.5        83.5      -0.012
  CDS-57               JUNCTION     79.66    79.66     0  13:33        9.46        9.46      -0.115
  CDS-59               JUNCTION      0.00  6210.27     0  13:52           0    1.63e+03       0.727
  CDS-6                JUNCTION     13.62  1167.04     1  05:23       0.815         656       0.805
  CDS-7                JUNCTION    171.27  1249.86     0  13:32        25.2         676       0.826
  CDS-8                JUNCTION     90.70  1286.13     0  14:16        14.6         683       0.270
  CDS-9                JUNCTION    148.99  1392.13     0  08:01        20.6         701       0.706
  CDS-C1               JUNCTION     89.09  2062.15     0  13:58        8.98         317       0.090
  CDS-CENTRALPARK      JUNCTION      0.36   778.45     0  07:41     0.00905         161       0.017
  CDS-HAMLIN           JUNCTION      0.16   776.91     0  07:43    0.000708         161       0.010
  CDS-HOMAN            JUNCTION    200.35   782.02     0  07:37        33.5         161       0.030
  CDS-LAWNDALE         JUNCTION      0.00   777.31     0  07:42           0         161       0.011
  CDS-SPAULDING        JUNCTION    590.92   590.92     0  07:32         128         128       0.013
  CDS-SPRINGFIELD      JUNCTION      2.11   778.32     0  07:44      0.0911         161       0.011
  CDWF-27              JUNCTION      0.00   886.89     0  11:19           0         110      10.458
  CDWF-30              JUNCTION      0.00  1245.68     0  07:39           0         144      16.192
  CRFD_IG_DS           JUNCTION     82.16   827.96     0  08:05        86.4         430       0.017
  CRFD_IG_US           JUNCTION     94.01   759.09     0  08:05        86.5         344       0.015
  CSRS                 JUNCTION     46.69  1526.69     1  04:44        54.3         259      -0.061
  DUMMY_OUTFALL        OUTFALL       0.00     0.00     0  00:00           0           0       0.000 gal
  RES                  STORAGE       0.00  6210.27     0  13:52           0    1.62e+03       0.904
  STO-334              STORAGE       0.00   295.69     0  10:41           0        2.08       9.792
  STO-335              STORAGE       0.00   964.67     0  11:19           0        86.6       9.907
  
  
  **********************
  Node Surcharge Summary
  **********************
  
  Surcharging occurs when water rises above the top of the highest conduit.
  ---------------------------------------------------------------------
                                               Max. Height   Min. Depth
                                   Hours       Above Crown    Below Rim
  Node                 Type      Surcharged           Feet         Feet
  ---------------------------------------------------------------------
  105                  JUNCTION       42.21         73.931      219.069
  126                  JUNCTION       41.18         62.042      219.065
  170                  JUNCTION       41.38         68.400      214.083
  221                  JUNCTION       37.31         44.191      219.052
  230                  JUNCTION       41.68        129.502      155.571
  266                  JUNCTION       41.92         69.330      219.053
  272                  JUNCTION       42.68         79.318      219.052
  275                  JUNCTION       42.24         72.929      219.051
  280                  JUNCTION       42.70         79.111      219.050
  282                  JUNCTION       42.22         72.648      219.052
  288                  JUNCTION       42.62         78.482      219.052
  289                  JUNCTION       42.66         78.488      219.046
  291                  JUNCTION       42.65         78.304      219.046
  293                  JUNCTION       41.16         60.211      219.053
  294                  JUNCTION       39.98         56.115      219.053
  296                  JUNCTION       42.77         80.071      219.049
  298                  JUNCTION       39.81         55.497      219.053
  324                  JUNCTION       42.39         73.433      219.037
  333                  JUNCTION       39.37         53.765      219.053
  353                  JUNCTION       42.82         80.571      219.049
  363                  JUNCTION       42.88         81.458      219.050
  364                  JUNCTION       42.87         81.311      219.049
  374                  JUNCTION       42.61        272.080        0.000
  417                  JUNCTION       12.28         47.316      157.252
  424                  JUNCTION       12.27         46.929      157.427
  430                  JUNCTION       22.13         21.404      218.946
  450                  JUNCTION        7.31         28.848      154.789
  463                  JUNCTION       42.53        270.868        0.000
  497                  JUNCTION       42.37        268.711        0.000
  514                  JUNCTION       42.77         79.581      219.049
  522                  JUNCTION       42.09         77.622      212.038
  554                  JUNCTION       43.10         84.307      219.049
  558                  JUNCTION       42.81         80.041      219.049
  620                  JUNCTION       41.63        262.666        0.000
  623                  JUNCTION       40.76        258.974        0.000
  69                   JUNCTION       39.47         56.410      219.073
  769                  JUNCTION       39.61        252.244        0.000
  771                  JUNCTION       39.35        248.649        0.000
  84                   JUNCTION       39.84         57.543      219.070
  91                   JUNCTION       40.35         59.373      219.069
  CALUMET_PS           JUNCTION       43.13         84.671      219.049
  CDS-10               JUNCTION       37.13         36.653      214.971
  CDS-11               JUNCTION       37.45         40.043      216.227
  CDS-12               JUNCTION       41.28        104.477      161.305
  CDS-127TH            JUNCTION        5.93        193.307       46.309
  CDS-13               JUNCTION       42.68         78.460      279.050
  CDS-14               JUNCTION       42.98         82.650      218.150
  CDS-15-1             JUNCTION       42.16         68.972      216.918
  CDS-15-2             JUNCTION       42.78         80.279      218.739
  CDS-16               JUNCTION       42.87         81.119      214.199
  CDS-17               JUNCTION       42.77         79.791      219.489
  CDS-18               JUNCTION       41.34        264.660       14.513
  CDS-19               JUNCTION       40.38         67.268      269.435
  CDS-20               JUNCTION       39.62         54.950      215.553
  CDS-21               JUNCTION       39.21         53.441      204.892
  CDS-22               JUNCTION       39.02         52.100      217.153
  CDS-23               JUNCTION       37.73         48.131      215.532
  CDS-24               JUNCTION       37.21         43.302      205.621
  CDS-25               JUNCTION       42.05         78.041      271.179
  CDS-26               JUNCTION       42.32        268.139       59.871
  CDS-28               JUNCTION       40.75        258.917       59.613
  CDS-32               JUNCTION       39.31        248.219       59.541
  CDS-33               JUNCTION       39.07        243.721       59.419
  CDS-34               JUNCTION       39.09        244.710       59.420
  CDS-36               JUNCTION       39.03        240.932       59.418
  CDS-4                JUNCTION       12.16          5.560      213.820
  CDS-47               JUNCTION       41.19         62.139      279.064
  CDS-48               JUNCTION       40.76         60.387      226.316
  CDS-5                JUNCTION       16.19          7.787      212.423
  CDS-59               JUNCTION       38.88         53.974      279.075
  CDS-6                JUNCTION       17.38          9.584      217.076
  CDS-7                JUNCTION       22.05         20.246      218.344
  CDS-8                JUNCTION       25.16         25.289      216.711
  CDS-9                JUNCTION       25.42         25.408      218.052
  CDWF-27              JUNCTION       41.92        265.349       59.806
  CDWF-30              JUNCTION       40.78        258.808       59.672
  CRFD_IG_US           JUNCTION       12.29         47.550      157.200
  CSRS                 JUNCTION        7.49         25.638      158.179
  
  
  *********************
  Node Flooding Summary
  *********************
  
  Flooding refers to all water that overflows a node, whether it ponds or not.
  --------------------------------------------------------------------------
                                                             Total   Maximum
                                 Maximum   Time of Max       Flood    Ponded
                        Hours       Rate    Occurrence      Volume     Depth
  Node                 Flooded       CFS   days hr:min    10^6 gal      Feet
  --------------------------------------------------------------------------
  STO-335                31.40    534.02      0  13:32      77.016     0.000
  
  
  **********************
  Storage Volume Summary
  **********************
  
  ------------------------------------------------------------------------------------------------
                         Average    Avg   Evap  Exfil     Maximum    Max    Time of Max    Maximum
                          Volume   Pcnt   Pcnt   Pcnt      Volume   Pcnt     Occurrence    Outflow
  Storage Unit          1000 ftł   Full   Loss   Loss    1000 ftł   Full    days hr:min        CFS
  ------------------------------------------------------------------------------------------------
  RES                 119900.053   13.0    0.0    0.0  214622.226   23.2       2  02:20       0.00
  STO-334                 24.156   16.2    0.0    0.0      39.452   26.4       2  02:19     204.25
  STO-335                 46.226   77.2    0.0    0.0      59.842  100.0       0  11:52     153.49
  
  
  ***********************
  Outfall Loading Summary
  ***********************
  
  -----------------------------------------------------------
                         Flow       Avg       Max       Total
                         Freq      Flow      Flow      Volume
  Outfall Node           Pcnt       CFS       CFS    10^6 gal
  -----------------------------------------------------------
  DUMMY_OUTFALL          0.00      0.00      0.00       0.000
  -----------------------------------------------------------
  System                 0.00      0.00      0.00       0.000
  
  
  ********************
  Link Flow Summary
  ********************
  
  -----------------------------------------------------------------------------
                                 Maximum  Time of Max   Maximum    Max/    Max/
                                  |Flow|   Occurrence   |Veloc|    Full    Full
  Link                 Type          CFS  days hr:min    ft/sec    Flow   Depth
  -----------------------------------------------------------------------------
  197                  CONDUIT    956.05     0  11:19      4.26    0.16    1.00
  206                  CONDUIT    335.20     0  07:29      8.25    0.27    1.00
  207                  CONDUIT    204.25     0  11:19      5.69    0.25    1.00
  208                  CONDUIT    961.52     0  11:19      3.67    0.18    1.00
  217                  CONDUIT   1028.77     1  05:28     11.50    0.17    1.00
  218                  CONDUIT   1166.11     1  05:23     12.81    0.20    1.00
  219                  CONDUIT   1302.59     0  14:09     12.73    0.24    1.00
  220                  CONDUIT   1273.81     0  14:16     11.97    0.36    1.00
  221                  CONDUIT   2868.32     0  08:06     12.58    0.51    1.00
  222                  CONDUIT   2867.01     0  08:06      8.08    0.49    1.00
  234                  CONDUIT    940.72     0  11:19      4.21    0.18    1.00
  240                  CONDUIT   1189.14     0  08:09      4.26    0.47    1.00
  244                  CONDUIT      0.00     0  00:00      0.00    0.00    0.00
  247                  CONDUIT   6210.27     0  13:52      8.69    0.79    1.00
  249                  CONDUIT    751.48     1  05:16      5.56    0.50    1.00
  250                  CONDUIT    975.16     0  08:09      2.75    0.28    1.00
  251                  CONDUIT   6151.06     0  13:52      8.61    0.78    1.00
  256                  CONDUIT   4148.29     0  13:41      5.80    0.52    1.00
  259                  CONDUIT   2194.24     0  08:03     14.53    0.38    1.00
  261                  CONDUIT     80.42     0  13:32      5.30    0.14    0.26
  271                  CONDUIT   4148.29     0  13:41      5.80    0.53    1.00
  285                  CONDUIT   1263.86     0  14:16     12.00    0.21    1.00
  287                  CONDUIT   1187.47     0  08:09      4.12    0.47    1.00
  289                  CONDUIT   3966.71     0  08:06     11.18    0.95    1.00
  290                  CONDUIT    964.67     0  11:19      1.97    0.18    1.00
  294                  CONDUIT    974.42     0  08:09      2.75    0.08    1.00
  295                  CONDUIT    100.25     0  10:39      5.25    0.15    1.00
  296                  CONDUIT     74.80     1  04:36      4.67    0.14    1.00
  297                  CONDUIT   3977.22     0  08:06     11.21    0.94    1.00
  302                  CONDUIT    486.70     0  11:16      3.59    0.09    1.00
  305                  CONDUIT    531.37     0  10:38      1.50    0.02    1.00
  306                  CONDUIT    361.17     0  10:38      2.26    0.09    1.00
  307                  CONDUIT    105.50     0  10:38      0.71    0.00    1.00
  309                  CONDUIT   1118.60     0  08:09      4.03    0.45    1.00
  320                  CONDUIT    776.09     0  13:42      9.10    0.31    0.44
  321                  CONDUIT   1250.62     0  13:43     12.41    0.50    0.50
  329                  CONDUIT    981.37     0  07:57     10.03    0.46    0.91
  331                  CONDUIT    807.44     0  10:56      4.84    0.10    1.00
  343                  CONDUIT     46.35     0  03:04      1.17    0.02    1.00
  352                  CONDUIT   1190.81     0  08:09      4.80    0.29    1.00
  353                  CONDUIT   2866.95     0  08:06      8.08    0.71    1.00
  354                  CONDUIT   2866.88     0  08:06      8.08    0.71    1.00
  373                  CONDUIT     90.70     0  10:39      6.80    0.13    1.00
  418                  CONDUIT   1483.06     1  04:44      9.29    0.90    1.00
  426                  CONDUIT      2.12     0  00:36      0.60    0.00    0.41
  433                  CONDUIT    871.20     0  08:05      5.66    0.14    1.00
  482                  CONDUIT    789.57     0  08:05      4.85    0.13    1.00
  507                  CONDUIT    575.01     0  10:40      2.52    0.11    1.00
  577                  CONDUIT    778.26     0  07:45     20.85    0.12    0.45
  594                  CONDUIT    784.09     0  08:05     11.77    0.13    0.35
  597                  CONDUIT     74.80     1  04:36      4.07    0.13    1.00
  598                  CONDUIT     92.30     0  07:28      5.53    0.16    1.00
  599                  CONDUIT    677.46     0  10:57      1.87    0.05    1.00
  600                  CONDUIT    252.29     0  10:41      0.51    0.02    1.00
  601                  CONDUIT    779.32     0  10:55      4.69    0.10    1.00
  602                  CONDUIT    159.80     0  07:56      5.71    0.51    0.64
  603                  CONDUIT    341.26     0  13:05     10.13    0.11    0.91
  604                  CONDUIT    285.04     0  09:09     11.81    1.01    0.82
  607                  CONDUIT    778.26     0  07:45     16.14    1.09    0.54
  608                  CONDUIT    809.20     0  07:47      9.22    0.36    0.42
  609                  CONDUIT    827.31     0  07:50      9.27    0.37    0.52
  610                  CONDUIT    826.22     0  07:52      9.32    0.37    0.67
  613                  CONDUIT    751.48     1  05:16      6.50    0.51    1.00
  639                  CONDUIT   2062.64     0  13:59     10.26    0.11    1.00
  685                  CONDUIT   2062.63     0  13:59     10.26    2.41    1.00
  731                  CONDUIT    696.21     0  08:05      4.60    0.14    1.00
  733                  CONDUIT    295.69     0  10:41      2.08    0.09    1.00
  734                  DUMMY       59.58     0  13:55
  754                  CONDUIT      0.00     0  00:00      0.00    0.00    0.00
  756                  CONDUIT    888.24     0  08:05      8.11    0.40    1.00
  758                  CONDUIT    976.38     0  08:02      9.29    0.44    0.96
  759                  CONDUIT    825.68     0  07:54      8.75    0.37    0.78
  760                  CONDUIT    827.18     0  07:51      9.30    0.37    0.60
  761                  CONDUIT    808.89     0  07:49      9.14    0.36    0.45
  762                  CONDUIT    778.08     0  07:46      8.96    0.35    0.41
  763                  CONDUIT    778.27     0  07:45      9.83    1.07    0.86
  764                  CONDUIT    776.73     0  07:44      9.74    1.06    0.87
  765                  CONDUIT    776.91     0  07:43      9.70    1.06    0.87
  766                  CONDUIT    777.31     0  07:42      9.73    1.06    0.88
  768                  CONDUIT    778.27     0  07:40      9.81    1.07    0.88
  770                  CONDUIT    586.54     0  07:33      8.53    0.80    0.80
  771                  CONDUIT    738.60     0  09:24     10.97    0.13    0.53
  772                  CONDUIT    803.31     0  13:40     11.02    0.14    0.85
  773                  CONDUIT   1165.42     0  13:46     12.12    0.20    1.00
  774                  CONDUIT   1391.21     0  07:54     11.51    0.24    1.00
  775                  CONDUIT   2495.71     0  08:05     15.14    0.42    1.00
  776                  CONDUIT   2861.22     0  08:05     14.86    0.48    1.00
  777                  CONDUIT    244.26     1  04:55      7.67    0.10    0.30
  778                  CONDUIT   1271.86     0  13:46     12.53    0.51    0.52
  779                  CONDUIT   1373.28     0  13:55     13.27    0.54    0.51
  780                  CONDUIT   4110.37     0  13:41      5.75   26.30    1.00
  781                  CONDUIT   4110.37     0  13:41      5.75   26.78    1.00
  782                  CONDUIT   4110.37     0  13:41      5.75   26.23    1.00
  783                  CONDUIT   4166.16     0  13:41      5.83   23.73    1.00
  784                  CONDUIT   6151.05     0  13:52      8.61   37.10    1.00
  785                  CONDUIT   6210.27     0  13:52      9.78    0.52    1.00
  786                  CONDUIT     59.58     0  13:55      8.76    0.11    0.14
  787                  CONDUIT    811.04     1  05:06     11.51    0.32    0.38
  788                  CONDUIT    689.84     1  05:06     10.02    0.27    0.37
  789                  CONDUIT    702.09     1  04:58     11.04    0.28    0.36
  790                  CONDUIT    700.68     1  04:53     10.67    0.28    0.36
  791                  CONDUIT    659.67     1  04:54     10.37    0.26    0.35
  792                  CONDUIT   1632.66     0  08:10      2.71    0.20    1.00
  793                  CONDUIT   1021.57     0  08:14      2.77    0.13    1.00
  794                  CONDUIT    130.72     0  10:40      6.15    0.23    1.00
  796                  CONDUIT    987.78     0  08:09      3.49    0.40    1.00
  797                  CONDUIT     83.08     0  07:23      3.35    9.11    1.00
  798                  CONDUIT    702.04     1  05:15      5.38    0.47    1.00
  799                  CONDUIT    702.04     1  05:15      6.24    0.47    1.00
  800                  CONDUIT    702.03     1  05:15      6.11    0.46    1.00
  801                  CONDUIT    894.47     0  11:19      4.68    0.17    1.00
  802                  CONDUIT    886.89     0  11:19      7.56    0.17    1.00
  803                  CONDUIT    297.82     0  11:19      1.69    0.12    1.00
  804                  CONDUIT   1116.14     0  07:19      8.27    0.21    1.00
  805                  CONDUIT   1245.68     0  07:39      8.70    0.24    1.00
  806                  CONDUIT    334.06     0  07:31      5.10    0.13    1.00
  807                  CONDUIT    927.45     0  07:27      7.33    0.18    1.00
  808                  CONDUIT    594.11     0  11:16      3.71    0.11    1.00
  CRAWFORD             ORIFICE    749.23     0  08:05                      1.00
  TORRENCEGATE         ORIFICE      0.01     0  01:48                      0.00
  
  
  ***************************
  Flow Classification Summary
  ***************************
  
  -------------------------------------------------------------------------------------
                      Adjusted    ---------- Fraction of Time in Flow Class ---------- 
                       /Actual         Up    Down  Sub   Sup   Up    Down  Norm  Inlet 
  Conduit               Length    Dry  Dry   Dry   Crit  Crit  Crit  Crit  Ltd   Ctrl  
  -------------------------------------------------------------------------------------
  197                     1.00   0.03  0.00  0.00  0.97  0.00  0.00  0.00  0.06  0.00
  206                     1.00   0.11  0.00  0.00  0.88  0.00  0.00  0.00  0.00  0.00
  207                     1.00   0.13  0.00  0.00  0.87  0.00  0.00  0.00  0.00  0.00
  208                     1.00   0.03  0.00  0.00  0.97  0.00  0.00  0.00  0.01  0.00
  217                     1.00   0.00  0.00  0.00  0.98  0.02  0.00  0.00  0.54  0.00
  218                     1.00   0.00  0.00  0.00  0.64  0.36  0.00  0.00  0.07  0.00
  219                     1.00   0.00  0.00  0.00  0.86  0.14  0.00  0.00  0.00  0.00
  220                     1.00   0.00  0.00  0.00  0.99  0.00  0.00  0.00  0.00  0.00
  221                     1.00   0.00  0.00  0.00  0.98  0.02  0.00  0.00  0.01  0.00
  222                     1.00   0.00  0.00  0.00  1.00  0.00  0.00  0.00  0.12  0.00
  234                     1.00   0.03  0.00  0.00  0.97  0.00  0.00  0.00  0.00  0.00
  240                     1.00   0.03  0.00  0.00  0.97  0.00  0.00  0.00  0.00  0.00
  244                     1.00   1.00  0.00  0.00  0.00  0.00  0.00  0.00  0.00  0.00
  247                     1.00   0.09  0.05  0.00  0.85  0.00  0.00  0.00  0.00  0.00
  249                     1.00   0.00  0.00  0.00  1.00  0.00  0.00  0.00  0.09  0.00
  250                     1.00   0.06  0.00  0.00  0.93  0.00  0.00  0.00  0.00  0.00
  251                     1.00   0.02  0.00  0.00  0.89  0.00  0.00  0.09  0.00  0.00
  256                     1.00   0.00  0.00  0.00  1.00  0.00  0.00  0.00  0.09  0.00
  259                     1.00   0.00  0.00  0.00  0.95  0.05  0.00  0.00  0.06  0.00
  261                     1.00   0.01  0.00  0.00  0.99  0.00  0.00  0.00  0.93  0.00
  271                     1.00   0.00  0.00  0.00  0.87  0.00  0.00  0.12  0.00  0.00
  285                     1.00   0.00  0.00  0.00  1.00  0.00  0.00  0.00  0.26  0.00
  287                     1.00   0.03  0.00  0.00  0.97  0.00  0.00  0.00  0.00  0.00
  289                     1.00   0.00  0.00  0.00  0.99  0.00  0.00  0.00  0.02  0.00
  290                     1.00   0.03  0.00  0.00  0.97  0.00  0.00  0.00  0.06  0.00
  294                     1.00   0.03  0.04  0.00  0.94  0.00  0.00  0.00  0.00  0.00
  295                     1.00   0.12  0.00  0.00  0.87  0.00  0.00  0.01  0.00  0.00
  296                     1.00   0.13  0.00  0.00  0.87  0.00  0.00  0.00  0.00  0.00
  297                     1.00   0.01  0.00  0.00  0.99  0.00  0.00  0.00  0.01  0.00
  302                     1.00   0.02  0.00  0.00  0.98  0.00  0.00  0.00  0.02  0.00
  305                     2.12   0.01  0.10  0.00  0.89  0.00  0.00  0.00  0.00  0.00
  306                     1.00   0.11  0.00  0.00  0.89  0.00  0.00  0.00  0.00  0.00
  307                     1.16   0.11  0.00  0.00  0.89  0.00  0.00  0.00  0.01  0.00
  309                     1.00   0.03  0.00  0.00  0.96  0.00  0.00  0.01  0.00  0.00
  320                     1.00   0.12  0.00  0.00  0.88  0.00  0.00  0.00  0.84  0.00
  321                     1.00   0.12  0.00  0.00  0.87  0.01  0.00  0.00  0.72  0.00
  329                     1.00   0.00  0.00  0.00  0.99  0.00  0.00  0.00  0.03  0.00
  331                     1.00   0.00  0.00  0.00  1.00  0.00  0.00  0.00  0.02  0.00
  343                     1.00   0.04  0.00  0.00  0.96  0.00  0.00  0.00  0.02  0.00
  352                     1.00   0.03  0.00  0.00  0.97  0.00  0.00  0.00  0.02  0.00
  353                     1.00   0.00  0.00  0.00  1.00  0.00  0.00  0.00  0.02  0.00
  354                     1.00   0.00  0.00  0.00  0.96  0.00  0.00  0.03  0.00  0.00
  373                     1.00   0.10  0.00  0.00  0.87  0.03  0.00  0.00  0.03  0.00
  418                     1.00   0.00  0.00  0.00  0.24  0.00  0.00  0.76  0.00  0.00
  426                     1.00   0.00  0.01  0.00  0.99  0.00  0.00  0.00  0.00  0.00
  433                     1.00   0.00  0.00  0.00  1.00  0.00  0.00  0.00  0.01  0.00
  482                     1.00   0.00  0.00  0.00  1.00  0.00  0.00  0.00  0.02  0.00
  507                     1.00   0.13  0.00  0.00  0.87  0.00  0.00  0.00  0.00  0.00
  577                     1.86   0.00  0.00  0.00  0.00  0.99  0.00  0.00  1.00  0.00
  594                     1.00   0.00  0.00  0.00  0.51  0.49  0.00  0.00  0.51  0.00
  597                     1.00   0.12  0.00  0.00  0.87  0.00  0.00  0.00  0.00  0.00
  598                     1.00   0.12  0.00  0.00  0.88  0.00  0.00  0.00  0.00  0.00
  599                     1.00   0.09  0.04  0.00  0.85  0.00  0.00  0.02  0.00  0.00
  600                     1.00   0.00  0.11  0.00  0.89  0.00  0.00  0.00  0.08  0.00
  601                     1.00   0.00  0.00  0.00  1.00  0.00  0.00  0.00  0.08  0.00
  602                     1.00   0.05  0.07  0.00  0.88  0.00  0.00  0.00  0.47  0.00
  603                     1.05   0.00  0.11  0.00  0.88  0.01  0.00  0.00  0.85  0.00
  604                     1.00   0.05  0.00  0.00  0.37  0.58  0.00  0.00  0.00  0.00
  607                     3.18   0.00  0.00  0.00  0.01  0.99  0.00  0.00  0.00  0.00
  608                     1.00   0.00  0.00  0.00  1.00  0.00  0.00  0.00  0.00  0.00
  609                     1.00   0.00  0.00  0.00  1.00  0.00  0.00  0.00  0.00  0.00
  610                     1.00   0.00  0.00  0.00  1.00  0.00  0.00  0.00  0.00  0.00
  613                     1.00   0.00  0.00  0.00  0.83  0.00  0.00  0.17  0.00  0.00
  639                     1.00   0.00  0.00  0.00  0.99  0.01  0.00  0.00  0.17  0.00
  685                     1.00   0.00  0.00  0.00  1.00  0.00  0.00  0.00  0.08  0.00
  731                     1.00   0.00  0.00  0.00  1.00  0.00  0.00  0.00  0.02  0.00
  733                     1.00   0.13  0.00  0.00  0.87  0.00  0.00  0.00  0.10  0.00
  754                     1.00   1.00  0.00  0.00  0.00  0.00  0.00  0.00  0.00  0.00
  756                     1.00   0.00  0.00  0.00  1.00  0.00  0.00  0.00  0.71  0.00
  758                     1.00   0.00  0.00  0.00  0.99  0.01  0.00  0.00  0.72  0.00
  759                     1.00   0.00  0.00  0.00  1.00  0.00  0.00  0.00  0.85  0.00
  760                     1.00   0.00  0.00  0.00  1.00  0.00  0.00  0.00  0.63  0.00
  761                     1.00   0.00  0.00  0.00  1.00  0.00  0.00  0.00  0.79  0.00
  762                     1.00   0.00  0.00  0.00  1.00  0.00  0.00  0.00  0.44  0.00
  763                     1.00   0.00  0.00  0.00  1.00  0.00  0.00  0.00  0.72  0.00
  764                     1.00   0.00  0.00  0.00  1.00  0.00  0.00  0.00  0.68  0.00
  765                     1.00   0.00  0.00  0.00  1.00  0.00  0.00  0.00  0.68  0.00
  766                     1.00   0.00  0.00  0.00  1.00  0.00  0.00  0.00  0.67  0.00
  768                     1.00   0.00  0.00  0.00  1.00  0.00  0.00  0.00  0.51  0.00
  770                     1.00   0.00  0.00  0.00  1.00  0.00  0.00  0.00  0.87  0.00
  771                     1.00   0.00  0.00  0.00  0.84  0.16  0.00  0.00  0.71  0.00
  772                     1.00   0.00  0.00  0.00  0.98  0.02  0.00  0.00  0.56  0.00
  773                     1.00   0.00  0.00  0.00  0.99  0.01  0.00  0.00  0.41  0.00
  774                     1.00   0.00  0.00  0.00  1.00  0.00  0.00  0.00  0.25  0.00
  775                     1.00   0.00  0.00  0.00  0.92  0.08  0.00  0.00  0.09  0.00
  776                     1.00   0.00  0.00  0.00  0.99  0.01  0.00  0.00  0.11  0.00
  777                     1.00   0.12  0.00  0.00  0.86  0.02  0.00  0.00  0.54  0.00
  778                     1.00   0.12  0.00  0.00  0.84  0.04  0.00  0.00  0.75  0.00
  779                     1.00   0.12  0.00  0.00  0.00  0.00  0.00  0.88  0.00  0.00
  780                     1.00   0.01  0.00  0.00  0.95  0.00  0.03  0.00  0.00  0.00
  781                     1.00   0.01  0.00  0.00  0.92  0.00  0.08  0.00  0.00  0.00
  782                     1.00   0.00  0.00  0.00  0.89  0.00  0.00  0.11  0.00  0.00
  783                     1.00   0.00  0.00  0.00  0.87  0.00  0.13  0.00  0.00  0.00
  784                     1.00   0.02  0.00  0.00  0.86  0.00  0.00  0.13  0.00  0.00
  785                     1.00   0.15  0.01  0.00  0.84  0.00  0.00  0.00  0.00  0.00
  786                     1.00   0.02  0.00  0.00  0.02  0.97  0.00  0.00  0.00  0.00
  787                     1.00   0.00  0.00  0.00  0.00  0.00  0.00  1.00  0.00  0.00
  788                     1.00   0.00  0.00  0.00  1.00  0.00  0.00  0.00  0.92  0.00
  789                     1.00   0.00  0.00  0.00  0.96  0.04  0.00  0.00  0.86  0.00
  790                     1.00   0.00  0.00  0.00  0.98  0.02  0.00  0.00  0.86  0.00
  791                     1.00   0.00  0.00  0.00  0.99  0.01  0.00  0.00  0.95  0.00
  792                     1.00   0.01  0.00  0.00  0.99  0.00  0.00  0.00  0.11  0.00
  793                     1.00   0.01  0.00  0.00  0.99  0.00  0.00  0.00  0.07  0.00
  794                     1.00   0.10  0.00  0.00  0.86  0.00  0.00  0.04  0.01  0.00
  796                     1.00   0.03  0.00  0.00  0.96  0.00  0.00  0.01  0.00  0.00
  797                     1.00   0.12  0.00  0.00  0.87  0.00  0.00  0.01  0.00  0.00
  798                     1.00   0.00  0.00  0.00  1.00  0.00  0.00  0.00  0.09  0.00
  799                     1.00   0.00  0.00  0.00  1.00  0.00  0.00  0.00  0.10  0.00
  800                     1.00   0.00  0.00  0.00  1.00  0.00  0.00  0.00  0.09  0.00
  801                     1.00   0.03  0.00  0.00  0.97  0.00  0.00  0.00  0.04  0.00
  802                     1.00   0.03  0.00  0.00  0.97  0.00  0.00  0.00  0.02  0.00
  803                     1.00   0.04  0.09  0.00  0.87  0.00  0.00  0.00  0.02  0.00
  804                     1.00   0.03  0.00  0.00  0.97  0.00  0.00  0.00  0.02  0.00
  805                     1.00   0.03  0.00  0.00  0.97  0.00  0.00  0.00  0.03  0.00
  806                     1.00   0.02  0.09  0.00  0.89  0.00  0.00  0.00  0.06  0.00
  807                     1.00   0.02  0.00  0.00  0.97  0.00  0.00  0.01  0.07  0.00
  808                     1.00   0.02  0.00  0.00  0.98  0.00  0.00  0.00  0.10  0.00
  
  
  *************************
  Conduit Surcharge Summary
  *************************
  
  ----------------------------------------------------------------------------
                                                           Hours        Hours 
                         --------- Hours Full --------   Above Full   Capacity
  Conduit                Both Ends  Upstream  Dnstream   Normal Flow   Limited
  ----------------------------------------------------------------------------
  197                        42.37     42.37     42.53      0.01         0.02
  206                        39.31     39.31     39.35      0.01         0.03
  207                        40.75     40.75     40.76      0.01         0.06
  208                        42.53     42.53     42.61      0.01         0.02
  217                        12.16     12.16     16.19      0.01         0.01
  218                        16.19     16.19     17.38      0.01         0.01
  219                        22.05     22.05     22.13      0.01         0.01
  220                        25.16     25.16     25.42      0.01         0.01
  221                        42.16     42.16     42.39      0.01         0.01
  222                        42.39     42.39     42.65      0.01         0.01
  234                        42.32     42.32     42.37      0.01         0.02
  240                        42.77     42.77     42.78      0.01         0.16
  247                        39.22     39.22     39.47      0.01         0.01
  249                        39.02     39.02     39.21      0.01         0.01
  250                        42.68     42.68     42.81      0.01         0.01
  251                        40.14     40.14     40.34      0.01         0.04
  256                        41.08     41.08     41.17      0.01         0.07
  259                        37.13     37.13     37.45      0.01         0.01
  271                        41.17     41.17     41.19      0.01         0.06
  285                        22.13     22.13     25.16      0.01         0.01
  287                        42.78     42.78     42.88      0.01         0.16
  289                        42.68     42.68     42.76      0.01         0.04
  290                        42.61     42.61     42.67      0.01         0.02
  294                        42.81     42.81     43.12      0.01         0.01
  295                        42.87     42.87     42.92      0.01         0.03
  296                        42.77     42.77     42.82      0.01         0.01
  297                        42.62     42.62     42.68      0.01         0.09
  302                        39.07     39.07     39.09      0.01         0.02
  305                        42.24     42.24     42.68      0.01         0.01
  306                        42.22     42.22     42.24      0.01         0.12
  307                        42.22     42.22     42.62      0.01         0.01
  309                        42.88     42.88     43.02      0.01         0.12
  331                        39.61     39.61     39.98      0.01         0.05
  343                        43.10     43.10     43.13      0.01         0.01
  352                        42.70     42.70     42.77      0.01         0.05
  353                        42.65     42.65     42.66      0.01         0.02
  354                        42.66     42.66     42.70      0.01         0.04
  373                        42.04     42.04     42.09      0.01         0.02
  418                         7.31      7.31      7.49      0.01         0.02
  433                        12.26     12.26     12.27      0.01         0.03
  482                        12.27     12.27     12.28      0.01         0.02
  507                        39.37     39.37     39.81      0.01         0.04
  597                        42.82     42.82     42.87      0.01         0.01
  598                        42.87     42.87     42.87      0.01         0.02
  599                        39.81     39.81     41.16      0.01         0.01
  600                        41.16     41.16     41.30      0.01         0.01
  601                        39.98     39.98     40.38      0.01         0.11
  603                         0.01      0.01      5.30      0.01         0.01
  604                         0.01      0.01      0.01      0.01         0.01
  607                         0.01      0.01      0.01      1.03         0.01
  613                        39.21     39.21     39.61      0.01         0.01
  639                        39.21     39.21     42.21      0.01         0.01
  685                        42.21     42.21     42.26      4.82         5.37
  731                        12.28     12.28     12.29      0.01         0.01
  733                        39.37     39.37     39.37      0.01         0.10
  756                         5.93      5.93      7.31      0.01         0.01
  758                         0.01      0.01      5.93      0.01         0.01
  763                         0.01      0.01      0.01      0.87         0.01
  764                         0.01      0.01      0.01      0.82         0.01
  765                         0.01      0.01      0.01      0.80         0.01
  766                         0.01      0.01      0.01      0.81         0.01
  768                         0.01      0.01      0.01      0.86         0.01
  772                         0.01      0.01     12.16      0.01         0.01
  773                        17.38     17.38     22.05      0.01         0.01
  774                        25.42     25.42     37.13      0.01         0.01
  775                        37.45     37.45     41.28      0.01         0.01
  776                        41.28     41.28     42.16      0.01         0.01
  780                        41.91     41.92     41.91     43.94        38.98
  781                        41.63     41.68     41.63     43.71        38.75
  782                        41.36     41.36     41.38     43.47         2.53
  783                        40.50     40.76     40.50     42.97        37.77
  784                        39.73     39.79     39.83     42.87         1.80
  785                        37.16     37.16     38.88      0.01         0.01
  792                        41.34     41.34     41.99      0.01         0.04
  793                        40.38     40.38     41.34      0.01         0.20
  794                        42.09     42.09     42.77      0.01         0.06
  796                        43.02     43.02     43.10      0.01         0.07
  797                        42.97     42.98     42.97     11.27         8.53
  798                        37.73     37.73     39.02      0.01         0.01
  799                        37.31     37.31     37.73      0.01         0.01
  800                        37.21     37.21     37.31      0.01         0.01
  801                        41.92     41.92     42.32      0.01         0.02
  802                        41.63     41.63     41.92      0.01         0.02
  803                        40.76     40.76     42.66      0.01         0.02
  804                        40.78     40.78     41.63      0.01         0.01
  805                        39.61     39.61     40.78      0.01         0.01
  806                        39.35     39.35     41.61      0.01         0.01
  807                        39.09     39.09     39.61      0.01         0.01
  808                        39.03     39.03     39.07      0.01         0.01
  

  Analysis begun on:  Wed Jun 24 17:36:57 2026
  Analysis ended on:  Wed Jun 24 17:37:13 2026
  Total elapsed time: 00:00:16