
  EPA STORM WATER MANAGEMENT MODEL - VERSION 5.2 (Build 5.2.4)
  ------------------------------------------------------------

  WARNING 03: negative offset ignored for Link SWALE
  WARNING 03: negative offset ignored for Link SWALE
  WARNING 02: maximum depth increased for Node 140
  WARNING 02: maximum depth increased for Node 173
  WARNING 02: maximum depth increased for Node 25
  WARNING 02: maximum depth increased for Node 255
  WARNING 02: maximum depth increased for Node 26
  WARNING 02: maximum depth increased for Node 261
  WARNING 02: maximum depth increased for Node 276
  WARNING 02: maximum depth increased for Node 31
  WARNING 02: maximum depth increased for Node 74
  WARNING 02: maximum depth increased for Node 77
  WARNING 02: maximum depth increased for Node JCT-10
  WARNING 02: maximum depth increased for Node JCT-120
  WARNING 02: maximum depth increased for Node JCT-160
  WARNING 02: maximum depth increased for Node JCT-162
  WARNING 02: maximum depth increased for Node JCT-164
  WARNING 02: maximum depth increased for Node JCT-166
  WARNING 02: maximum depth increased for Node JCT-168
  WARNING 02: maximum depth increased for Node JCT-170
  
  ****************
  Analysis Options
  ****************
  Flow Units ............... CFS
  Process Models:
    Rainfall/Runoff ........ YES
    RDII ................... YES
    Snowmelt ............... NO
    Groundwater ............ NO
    Flow Routing ........... YES
    Ponding Allowed ........ NO
    Water Quality .......... NO
  Infiltration Method ...... GREEN_AMPT
  Flow Routing Method ...... DYNWAVE
  Surcharge Method ......... EXTRAN
  Starting Date ............ 01/01/1997 00:00:00
  Ending Date .............. 01/02/1997 02:07:00
  Antecedent Dry Days ...... 5.0
  Report Time Step ......... 00:05:00
  Wet Time Step ............ 00:00:30
  Dry Time Step ............ 00:01:00
  Routing Time Step ........ 30.00 sec
  Variable Time Step ....... YES
  Maximum Trials ........... 8
  Number of Threads ........ 1
  Head Tolerance ........... 0.000100 ft
  
  
  **********************           Volume        Volume
  Rainfall Dependent I/I        acre-feet      10^6 gal
  **********************        ---------     ---------
  Sewershed Rainfall ......        92.012        29.984
  RDII Produced ...........         4.601         1.499
  RDII Ratio ..............         0.050
  
  
  **************************        Volume         Depth
  Runoff Quantity Continuity     acre-feet        inches
  **************************     ---------       -------
  Initial LID Storage ......         9.457         0.385
  Initial Snow Cover .......         0.000         0.000
  Total Precipitation ......       166.670         6.780
  Evaporation Loss .........         0.945         0.038
  Infiltration Loss ........       104.498         4.251
  Surface Runoff ...........        45.541         1.853
  Snow Removed .............         0.000         0.000
  Final Snow Cover .........         0.000         0.000
  Final Storage ............        25.146         1.023
  Continuity Error (%) .....        -0.002
  
  
  **************************        Volume        Volume
  Flow Routing Continuity        acre-feet      10^6 gal
  **************************     ---------     ---------
  Dry Weather Inflow .......         7.224         2.354
  Wet Weather Inflow .......        45.524        14.835
  Groundwater Inflow .......         0.000         0.000
  RDII Inflow ..............         4.602         1.500
  External Inflow ..........         3.811         1.242
  External Outflow .........        15.871         5.172
  Flooding Loss ............         0.917         0.299
  Evaporation Loss .........         0.255         0.083
  Exfiltration Loss ........        19.473         6.346
  Initial Stored Volume ....         0.003         0.001
  Final Stored Volume ......        20.609         6.716
  Continuity Error (%) .....         6.604
  
  
  *************************
  Highest Continuity Errors
  *************************
  Node 166 (73.56%)
  Node 144 (69.43%)
  Node 351 (54.02%)
  Node 209 (49.08%)
  Node 269 (44.05%)
  
  
  ***************************
  Time-Step Critical Elements
  ***************************
  Link CDT-161 (19.17%)
  Link 3289 (16.17%)
  Link 2601OF (3.64%)
  Link R74 (1.57%)
  
  
  ********************************
  Highest Flow Instability Indexes
  ********************************
  Link CDT-137 (62)
  Link CDT-141 (50)
  Link CDT-143 (48)
  Link CDT-151 (47)
  Link 257OF (46)
  
  
  *********************************
  Most Frequent Nonconverging Nodes
  *********************************
  Node DUMMYOUTFALL (92.25%)
  Node OFALL-10 (92.25%)
  Node OFALL-12 (92.25%)
  Node VIADUCT1 (92.25%)
  Node VIADUCT2 (92.25%)
  
  
  *************************
  Routing Time Step Summary
  *************************
  Minimum Time Step           :     1.94 sec
  Average Time Step           :    26.31 sec
  Maximum Time Step           :    30.00 sec
  % of Time in Steady State   :     0.00
  Average Iterations per Step :     7.74
  % of Steps Not Converging   :    92.25
  Time Step Frequencies       :
     30.000 -  3.817 sec      :    99.94 %
      3.817 -  0.486 sec      :     0.06 %
      0.486 -  0.062 sec      :     0.00 %
      0.062 -  0.008 sec      :     0.00 %
      0.008 -  0.001 sec      :     0.00 %
  
  
  ***************************
  Subcatchment Runoff Summary
  ***************************
  
  ------------------------------------------------------------------------------------------------------------------------------
                            Total      Total      Total      Total     Imperv       Perv      Total       Total     Peak  Runoff
                           Precip      Runon       Evap      Infil     Runoff     Runoff     Runoff      Runoff   Runoff   Coeff
  Subcatchment                 in         in         in         in         in         in         in    10^6 gal      CFS
  ------------------------------------------------------------------------------------------------------------------------------
  C10                        6.78       0.00       0.06       2.88       3.88       0.89       3.10        0.81    12.23   0.457
  C13                        6.78       0.00       0.06       2.90       3.83       0.90       3.08        0.15     2.45   0.454
  C15                        6.78       0.00       0.05       3.74       2.67       0.82       2.27        0.61    10.12   0.334
  C20                        6.78       0.00       0.04       4.21       1.90       0.89       1.81        0.37     6.90   0.267
  C25                        6.78       0.00       0.03       4.53       1.46       0.84       1.50        0.60    10.40   0.221
  C30                        6.78       0.00       0.03       4.72       1.12       0.91       1.32        0.24     4.73   0.195
  C33                        6.78       0.00       0.04       4.18       1.62       1.01       1.84        0.36     7.15   0.272
  C35                        6.78       0.00       0.04       4.45       1.86       0.64       1.75        0.64    10.33   0.258
  C45                        6.78       0.00       0.04       4.36       1.62       0.76       1.67        0.48     7.81   0.246
  C50                        6.78       0.00       0.04       4.24       2.13       0.83       2.07        1.07    16.60   0.306
  C55                        6.78       0.00       0.04       4.01       2.23       0.92       2.20        0.39     6.90   0.325
  C57                        6.78       0.00       0.04       3.84       2.23       0.88       2.17        0.76    12.73   0.320
  C60                        6.78       0.00       0.05       3.65       2.50       0.86       2.35        0.98    15.82   0.347
  C65                        6.78       0.00       0.05       3.77       2.83       0.60       2.40        0.41     6.79   0.354
  D10                        6.78       0.00       0.06       2.97       3.66       0.63       3.01        0.80    12.19   0.443
  D15                        6.78       0.00       0.05       3.87       2.60       0.88       2.43        0.40     6.63   0.359
  D20                        6.78       0.00       0.05       3.81       2.51       0.91       2.39        0.45     7.89   0.352
  D21                        6.78       0.00       0.03       4.71       0.97       0.93       1.33        0.54    10.59   0.197
  D22                        6.78       0.00       0.03       4.61       1.16       0.88       1.43        0.54     9.48   0.210
  D25                        6.78       0.00       0.03       4.91       1.11       0.75       1.31        0.20     3.74   0.193
  D30                        6.78       0.00       0.03       4.88       1.07       0.59       1.16        0.45     6.24   0.171
  D32                        6.78       0.00       0.05       4.01       2.41       0.88       2.31        0.21     3.36   0.340
  D35                        6.78       0.00       0.03       4.82       1.11       0.90       1.41        0.31     5.67   0.208
  D40                        6.78       0.00       0.03       4.51       1.25       0.92       1.52        0.42     7.62   0.224
  D45                        6.78       0.00       0.04       4.31       1.58       0.87       1.71        0.75    12.42   0.253
  D50                        6.78       0.00       0.04       4.45       1.81       0.69       1.75        0.40     7.04   0.258
  D55                        6.78       0.00       0.03       4.67       1.21       0.75       1.37        0.26     4.17   0.201
  D60                        6.78       0.00       0.03       4.91       1.16       0.89       1.43        0.49     8.68   0.211
  D65                        6.78       0.00       0.03       4.77       1.11       0.97       1.46        0.34     6.72   0.215
  D70                        6.78       0.00       0.04       3.95       2.04       0.91       2.07        0.41     7.12   0.305
  

  ***********************
  LID Performance Summary
  ***********************

  --------------------------------------------------------------------------------------------------------------------
                                         Total      Evap     Infil   Surface    Drain    Initial     Final  Continuity
                                        Inflow      Loss      Loss   Outflow   Outflow   Storage   Storage       Error
  Subcatchment      LID Control             in        in        in        in        in        in        in           %
  --------------------------------------------------------------------------------------------------------------------
  C10               RG                   11.54      0.06      6.69      4.19      0.00      0.30      0.90       -0.01
  C10               PAVEMENT             11.54      0.00     11.54      0.00      0.00      0.00      0.00        0.00
  C10               GREENROOF            11.54      0.01      0.00      0.00      7.99      2.36      5.90       -0.00
  C10               VEGSWALE             11.54      0.03      7.76      3.76      0.00      0.00      0.00       -0.01
  C10               RAINB                11.54      0.00      0.00      0.00      5.43      0.00      6.12       -0.01
  C10               BIOCELL              11.54      0.01      7.60      0.00      0.00      5.91      9.83       -0.00
  C10               TRENCH               11.54      0.00     11.54      0.00      0.00      0.00      0.00        0.00
  C13               RG                   11.51      0.06      6.59      4.28      0.00      0.30      0.89       -0.01
  C13               PAVEMENT             11.51      0.00     11.51      0.00      0.00      0.00      0.00        0.00
  C13               GREENROOF            11.51      0.01      0.00      0.00      7.97      2.36      5.90       -0.00
  C13               VEGSWALE             11.51      0.03      7.64      3.85      0.00      0.00      0.00       -0.01
  C13               RAINB                11.51      0.00      0.00      0.00      5.40      0.00      6.12       -0.01
  C13               BIOCELL              11.51      0.01      7.57      0.00      0.00      5.91      9.83       -0.00
  C13               TRENCH               11.51      0.00     11.51      0.00      0.00      0.00      0.00        0.00
  C15               RG                   10.27      0.06      6.47      3.17      0.00      0.30      0.86       -0.01
  C15               PAVEMENT             10.27      0.00     10.27      0.00      0.00      0.00      0.00        0.00
  C15               GREENROOF            10.27      0.02      0.00      0.00      6.72      2.36      5.89       -0.00
  C15               VEGSWALE             10.27      0.03      7.26      2.98      0.00      0.00      0.00       -0.01
  C15               RAINB                10.27      0.00      0.00      0.00      4.18      0.00      6.09       -0.01
  C15               BIOCELL              10.27      0.02      6.33      0.00      0.00      5.91      9.82       -0.00
  C15               TRENCH               10.27      0.00     10.27      0.00      0.00      0.00      0.00        0.00
  C20               RG                    9.56      0.06      6.35      2.61      0.00      0.30      0.84       -0.01
  C20               PAVEMENT              9.56      0.00      9.56      0.00      0.00      0.00      0.00        0.00
  C20               GREENROOF             9.56      0.02      0.00      0.00      6.02      2.36      5.89       -0.00
  C20               VEGSWALE              9.56      0.03      6.96      2.57      0.00      0.00      0.00       -0.01
  C20               RAINB                 9.56      0.00      0.00      0.00      3.49      0.00      6.07       -0.01
  C20               BIOCELL               9.56      0.02      5.63      0.00      0.00      5.91      9.82       -0.00
  C20               TRENCH                9.56      0.00      9.56      0.00      0.00      0.00      0.00        0.00
  C25               RG                    9.08      0.06      6.36      2.10      0.00      0.30      0.85       -0.01
  C25               PAVEMENT              9.08      0.00      9.08      0.00      0.00      0.00      0.00        0.00
  C25               GREENROOF             9.08      0.02      0.00      0.00      5.54      2.36      5.89       -0.00
  C25               VEGSWALE              9.08      0.03      6.89      2.17      0.00      0.00      0.00       -0.02
  C25               RAINB                 9.08      0.00      0.00      0.00      3.02      0.00      6.06       -0.01
  C25               BIOCELL               9.08      0.02      5.15      0.00      0.00      5.91      9.82       -0.00
  C25               TRENCH                9.08      0.00      9.08      0.00      0.00      0.00      0.00        0.00
  C30               RG                    8.81      0.06      6.23      1.98      0.00      0.30      0.84       -0.01
  C30               PAVEMENT              8.81      0.00      8.81      0.00      0.00      0.00      0.00        0.00
  C30               GREENROOF             8.81      0.02      0.00      0.00      5.27      2.36      5.89       -0.00
  C30               VEGSWALE              8.81      0.02      6.68      2.11      0.00      0.00      0.00       -0.01
  C30               RAINB                 8.81      0.00      0.00      0.00      2.75      0.00      6.06       -0.01
  C30               BIOCELL               8.81      0.02      4.87      0.00      0.00      5.91      9.82       -0.00
  C30               TRENCH                8.81      0.00      8.81      0.00      0.00      0.00      0.00        0.00
  C33               RG                    9.41      0.06      6.30      2.50      0.00      0.30      0.84       -0.01
  C33               GREENROOF             9.41      0.02      0.00      0.00      5.87      2.36      5.89       -0.00
  C33               VEGSWALE              9.41      0.03      6.85      2.53      0.00      0.00      0.00       -0.01
  C33               RAINB                 9.41      0.00      0.00      0.00      3.34      0.00      6.07       -0.01
  C33               BIOCELL               9.41      0.02      5.48      0.00      0.00      5.91      9.82       -0.00
  C33               TRENCH                9.41      0.00      9.41      0.00      0.00      0.00      0.00        0.00
  C35               RG                    9.27      0.06      6.40      2.25      0.00      0.30      0.85       -0.01
  C35               VEGSWALE              9.27      0.03      6.99      2.26      0.00      0.00      0.00       -0.02
  C35               RAINB                 9.27      0.00      0.00      0.00      3.21      0.00      6.07       -0.01
  C35               BIOCELL               9.27      0.02      5.34      0.00      0.00      5.91      9.82       -0.00
  C35               TRENCH                9.27      0.00      9.27      0.00      0.00      0.00      0.00        0.00
  C35               PAVEMENT              9.27      0.00      9.27      0.00      0.00      0.00      0.00        0.00
  C45               RG                    9.16      0.06      6.35      2.20      0.00      0.30      0.85       -0.01
  C45               RAINB                 9.16      0.00      0.00      0.00      3.10      0.00      6.07       -0.01
  C45               BIOCELL               9.16      0.02      5.22      0.00      0.00      5.91      9.82       -0.00
  C45               TRENCH                9.16      0.00      9.16      0.00      0.00      0.00      0.00        0.00
  C45               PAVEMENT              9.16      0.00      9.16      0.00      0.00      0.00      0.00        0.00
  C45               GREENROOF             9.16      0.02      0.00      0.00      5.62      2.36      5.89       -0.00
  C50               RG                    9.74      0.07      6.50      2.61      0.00      0.30      0.87       -0.01
  C50               BIOCELL               9.74      0.02      5.81      0.00      0.00      5.91      9.82       -0.00
  C50               TRENCH                9.74      0.00      9.74      0.00      0.00      0.00      0.00        0.00
  C50               PAVEMENT              9.74      0.00      9.74      0.00      0.00      0.00      0.00        0.00
  C50               GREENROOF             9.74      0.02      0.00      0.00      6.20      2.36      5.89       -0.00
  C50               VEGSWALE              9.74      0.03      7.18      2.54      0.00      0.00      0.00       -0.02
  C55               RG                    9.92      0.07      6.38      2.93      0.00      0.30      0.85       -0.01
  C55               TRENCH                9.92      0.00      9.92      0.00      0.00      0.00      0.00        0.00
  C55               PAVEMENT              9.92      0.00      9.92      0.00      0.00      0.00      0.00        0.00
  C55               GREENROOF             9.92      0.02      0.00      0.00      6.38      2.36      5.89       -0.00
  C55               VEGSWALE              9.92      0.03      7.08      2.82      0.00      0.00      0.00       -0.01
  C55               RAINB                 9.92      0.00      0.00      0.00      3.84      0.00      6.08       -0.01
  C57               RG                    9.88      0.07      6.45      2.82      0.00      0.30      0.86       -0.01
  C57               PAVEMENT              9.88      0.00      9.88      0.00      0.00      0.00      0.00        0.00
  C57               GREENROOF             9.88      0.02      0.00      0.00      6.34      2.36      5.89       -0.00
  C57               VEGSWALE              9.88      0.03      7.14      2.71      0.00      0.00      0.00       -0.01
  C57               RAINB                 9.88      0.00      0.00      0.00      3.80      0.00      6.08       -0.01
  C57               BIOCELL               9.88      0.02      5.95      0.00      0.00      5.91      9.82       -0.00
  C60               RG                   10.14      0.06      6.51      3.01      0.00      0.30      0.86       -0.01
  C60               GREENROOF            10.14      0.02      0.00      0.00      6.60      2.36      5.89       -0.00
  C60               VEGSWALE             10.14      0.03      7.26      2.85      0.00      0.00      0.00       -0.01
  C60               RAINB                10.14      0.00      0.00      0.00      4.06      0.00      6.09       -0.01
  C60               BIOCELL              10.14      0.02      6.21      0.00      0.00      5.91      9.83       -0.00
  C60               TRENCH               10.14      0.00     10.14      0.00      0.00      0.00      0.00        0.00
  C65               RG                   10.21      0.07      6.45      3.14      0.00      0.30      0.85       -0.01
  C65               VEGSWALE             10.21      0.03      7.24      2.95      0.00      0.00      0.00       -0.01
  C65               RAINB                10.21      0.00      0.00      0.00      4.13      0.00      6.09       -0.01
  C65               BIOCELL              10.21      0.02      6.28      0.00      0.00      5.91      9.82       -0.00
  C65               TRENCH               10.21      0.00     10.21      0.00      0.00      0.00      0.00        0.00
  C65               PAVEMENT             10.21      0.00     10.21      0.00      0.00      0.00      0.00        0.00
  D10               RG                   11.07      0.07      6.59      3.85      0.00      0.30      0.87       -0.01
  D10               RAINB                11.07      0.00      0.00      0.00      4.97      0.00      6.11       -0.01
  D10               BIOCELL              11.07      0.02      7.14      0.00      0.00      5.91      9.83       -0.00
  D10               TRENCH               11.07      0.00     11.07      0.00      0.00      0.00      0.00        0.00
  D10               PAVEMENT             11.07      0.00     11.07      0.00      0.00      0.00      0.00        0.00
  D10               GREENROOF            11.07      0.02      0.00      0.00      7.53      2.36      5.89       -0.00
  D15               RG                   10.26      0.06      6.42      3.22      0.00      0.30      0.85       -0.01
  D15               BIOCELL              10.26      0.02      6.32      0.00      0.00      5.91      9.82       -0.00
  D15               TRENCH               10.26      0.00     10.26      0.00      0.00      0.00      0.00        0.00
  D15               PAVEMENT             10.26      0.00     10.26      0.00      0.00      0.00      0.00        0.00
  D15               GREENROOF            10.26      0.02      0.00      0.00      6.71      2.36      5.89       -0.00
  D15               VEGSWALE             10.26      0.03      7.20      3.03      0.00      0.00      0.00       -0.01
  D20               RG                   10.19      0.07      6.42      3.16      0.00      0.30      0.85       -0.01
  D20               TRENCH               10.19      0.00     10.19      0.00      0.00      0.00      0.00        0.00
  D20               PAVEMENT             10.19      0.00     10.19      0.00      0.00      0.00      0.00        0.00
  D20               GREENROOF            10.19      0.02      0.00      0.00      6.65      2.36      5.89       -0.00
  D20               VEGSWALE             10.19      0.03      7.17      3.00      0.00      0.00      0.00       -0.01
  D20               RAINB                10.19      0.00      0.00      0.00      4.11      0.00      6.09       -0.01
  D21               RG                    8.69      0.06      6.29      1.78      0.00      0.30      0.85       -0.01
  D21               PAVEMENT              8.69      0.00      8.69      0.00      0.00      0.00      0.00        0.00
  D21               GREENROOF             8.69      0.02      0.00      0.00      5.14      2.36      5.89       -0.00
  D21               VEGSWALE              8.69      0.02      6.71      1.95      0.00      0.00      0.00       -0.02
  D21               RAINB                 8.69      0.00      0.00      0.00      2.63      0.00      6.06       -0.01
  D21               BIOCELL               8.69      0.02      4.75      0.00      0.00      5.91      9.82       -0.00
  D22               RG                    8.82      0.06      6.31      1.89      0.00      0.30      0.85       -0.01
  D22               GREENROOF             8.82      0.02      0.00      0.00      5.27      2.36      5.89       -0.00
  D22               VEGSWALE              8.82      0.03      6.79      2.00      0.00      0.00      0.00       -0.02
  D22               RAINB                 8.82      0.00      0.00      0.00      2.76      0.00      6.06       -0.01
  D22               BIOCELL               8.82      0.02      4.88      0.00      0.00      5.91      9.82       -0.00
  D22               TRENCH                8.82      0.00      8.82      0.00      0.00      0.00      0.00        0.00
  D25               RG                    8.65      0.06      6.21      1.84      0.00      0.30      0.83       -0.01
  D25               VEGSWALE              8.65      0.02      6.65      1.97      0.00      0.00      0.00       -0.01
  D25               RAINB                 8.65      0.00      0.00      0.00      2.59      0.00      6.05       -0.01
  D25               BIOCELL               8.65      0.02      4.71      0.00      0.00      5.91      9.82       -0.00
  D25               TRENCH                8.65      0.00      8.65      0.00      0.00      0.00      0.00        0.00
  D25               PAVEMENT              8.65      0.00      8.65      0.00      0.00      0.00      0.00        0.00
  D30               RG                    8.44      0.06      6.31      1.52      0.00      0.30      0.85       -0.01
  D30               RAINB                 8.44      0.00      0.00      0.00      2.39      0.00      6.05       -0.00
  D30               BIOCELL               8.44      0.02      4.50      0.00      0.00      5.91      9.83       -0.00
  D30               TRENCH                8.44      0.00      8.44      0.00      0.00      0.00      0.00        0.00
  D30               PAVEMENT              8.44      0.00      8.44      0.00      0.00      0.00      0.00        0.00
  D30               GREENROOF             8.44      0.02      0.00      0.00      4.89      2.36      5.89       -0.00
  D32               RG                   10.07      0.06      6.37      3.10      0.00      0.30      0.84       -0.01
  D32               BIOCELL              10.07      0.02      6.14      0.00      0.00      5.91      9.82       -0.00
  D32               TRENCH               10.07      0.00     10.07      0.00      0.00      0.00      0.00        0.00
  D32               PAVEMENT             10.07      0.00     10.07      0.00      0.00      0.00      0.00        0.00
  D32               GREENROOF            10.07      0.02      0.00      0.00      6.53      2.36      5.89       -0.00
  D32               VEGSWALE             10.07      0.03      7.13      2.92      0.00      0.00      0.00       -0.01
  D35               RG                    8.80      0.06      6.25      1.95      0.00      0.30      0.84       -0.01
  D35               TRENCH                8.80      0.00      8.80      0.00      0.00      0.00      0.00        0.00
  D35               PAVEMENT              8.80      0.00      8.80      0.00      0.00      0.00      0.00        0.00
  D35               GREENROOF             8.80      0.02      0.00      0.00      5.25      2.36      5.89       -0.00
  D35               VEGSWALE              8.80      0.02      6.73      2.05      0.00      0.00      0.00       -0.01
  D35               RAINB                 8.80      0.00      0.00      0.00      2.74      0.00      6.06       -0.01
  D40               RG                    8.95      0.06      6.29      2.06      0.00      0.30      0.84       -0.01
  D40               PAVEMENT              8.95      0.00      8.95      0.00      0.00      0.00      0.00        0.00
  D40               GREENROOF             8.95      0.02      0.00      0.00      5.41      2.36      5.89       -0.00
  D40               VEGSWALE              8.95      0.03      6.79      2.14      0.00      0.00      0.00       -0.02
  D40               RAINB                 8.95      0.00      0.00      0.00      2.89      0.00      6.06       -0.01
  D40               BIOCELL               8.95      0.02      5.02      0.00      0.00      5.91      9.82       -0.00
  D45               RG                    9.23      0.06      6.39      2.22      0.00      0.30      0.85       -0.01
  D45               GREENROOF             9.23      0.02      0.00      0.00      5.68      2.36      5.89       -0.00
  D45               VEGSWALE              9.23      0.03      6.96      2.25      0.00      0.00      0.00       -0.02
  D45               RAINB                 9.23      0.00      0.00      0.00      3.16      0.00      6.07       -0.01
  D45               BIOCELL               9.23      0.02      5.29      0.00      0.00      5.91      9.82       -0.00
  D45               TRENCH                9.23      0.00      9.23      0.00      0.00      0.00      0.00        0.00
  D50               RG                    9.28      0.06      6.34      2.33      0.00      0.30      0.85       -0.01
  D50               VEGSWALE              9.28      0.03      6.92      2.34      0.00      0.00      0.00       -0.01
  D50               RAINB                 9.28      0.00      0.00      0.00      3.21      0.00      6.07       -0.01
  D50               BIOCELL               9.28      0.02      5.34      0.00      0.00      5.91      9.82       -0.00
  D50               TRENCH                9.28      0.00      9.28      0.00      0.00      0.00      0.00        0.00
  D50               PAVEMENT              9.28      0.00      9.28      0.00      0.00      0.00      0.00        0.00
  D55               RG                    8.73      0.06      6.25      1.88      0.00      0.30      0.84       -0.01
  D55               RAINB                 8.73      0.00      0.00      0.00      2.67      0.00      6.06       -0.01
  D55               BIOCELL               8.73      0.02      4.79      0.00      0.00      5.91      9.82       -0.00
  D55               TRENCH                8.73      0.00      8.73      0.00      0.00      0.00      0.00        0.00
  D55               PAVEMENT              8.73      0.00      8.73      0.00      0.00      0.00      0.00        0.00
  D55               GREENROOF             8.73      0.02      0.00      0.00      5.19      2.36      5.89       -0.00
  D60               RG                    8.83      0.06      6.30      1.92      0.00      0.30      0.85       -0.01
  D60               BIOCELL               8.83      0.02      4.89      0.00      0.00      5.91      9.82       -0.00
  D60               TRENCH                8.83      0.00      8.83      0.00      0.00      0.00      0.00        0.00
  D60               PAVEMENT              8.83      0.00      8.83      0.00      0.00      0.00      0.00        0.00
  D60               GREENROOF             8.83      0.02      0.00      0.00      5.28      2.36      5.89       -0.00
  D60               VEGSWALE              8.83      0.02      6.79      2.02      0.00      0.00      0.00       -0.02
  D65               RG                    8.87      0.06      6.25      2.02      0.00      0.30      0.84       -0.01
  D65               TRENCH                8.87      0.00      8.87      0.00      0.00      0.00      0.00        0.00
  D65               PAVEMENT              8.87      0.00      8.87      0.00      0.00      0.00      0.00        0.00
  D65               GREENROOF             8.87      0.02      0.00      0.00      5.32      2.36      5.89       -0.00
  D65               VEGSWALE              8.87      0.02      6.70      2.14      0.00      0.00      0.00       -0.01
  D65               RAINB                 8.87      0.00      0.00      0.00      2.81      0.00      6.06       -0.01
  D70               RG                    9.73      0.06      6.37      2.76      0.00      0.30      0.85       -0.01
  D70               PAVEMENT              9.73      0.00      9.73      0.00      0.00      0.00      0.00        0.00
  D70               GREENROOF             9.73      0.02      0.00      0.00      6.19      2.36      5.89       -0.00
  D70               VEGSWALE              9.73      0.03      7.03      2.68      0.00      0.00      0.00       -0.01
  D70               RAINB                 9.73      0.00      0.00      0.00      3.66      0.00      6.08       -0.01
  D70               BIOCELL               9.73      0.02      5.80      0.00      0.00      5.91      9.82       -0.00
  
  ******************
  Node Depth Summary
  ******************
  
  ---------------------------------------------------------------------------------
                                 Average  Maximum  Maximum  Time of Max    Reported
                                   Depth    Depth      HGL   Occurrence   Max Depth
  Node                 Type         Feet     Feet     Feet  days hr:min        Feet
  ---------------------------------------------------------------------------------
  1001                 JUNCTION     0.06     0.30   709.25     0  12:30        0.30
  105                  JUNCTION     0.02     0.08   678.86     0  12:15        0.08
  13                   JUNCTION     0.03     0.05   689.42     0  08:00        0.05
  136                  JUNCTION     1.75     3.28   668.41     0  12:45        3.28
  137                  JUNCTION     0.05     0.08   690.56     0  12:52        0.08
  140                  JUNCTION     0.94     2.11   668.39     0  12:45        2.11
  144                  JUNCTION     1.65     2.63   668.98     0  12:22        2.63
  147                  JUNCTION     0.05     0.10   686.64     0  12:39        0.10
  15                   JUNCTION     0.02     0.04   687.91     0  07:36        0.04
  150                  JUNCTION     0.04     0.18   681.97     0  12:31        0.18
  158                  JUNCTION     0.08     0.31   670.38     0  13:05        0.31
  166                  JUNCTION     1.18     2.20   672.27     0  13:03        2.20
  173                  JUNCTION     0.18     0.44   670.47     0  12:33        0.44
  179                  JUNCTION     0.02     0.12   668.92     0  12:22        0.12
  18                   JUNCTION     0.02     0.03   694.57     0  07:24        0.03
  183                  JUNCTION     0.04     0.19   671.14     0  12:16        0.19
  19                   JUNCTION     0.06     0.24   672.12     0  12:33        0.24
  200                  JUNCTION     0.04     0.16   689.27     0  12:35        0.16
  201                  JUNCTION     0.24     0.64   694.51     0  12:45        0.64
  205                  JUNCTION     1.91     3.99   668.76     0  12:32        3.98
  209                  JUNCTION     1.66     3.20   674.25     0  13:44        3.20
  232                  JUNCTION     0.31     0.87   672.28     0  13:04        0.87
  244                  JUNCTION     0.01     0.07   678.61     0  12:15        0.07
  25                   JUNCTION     0.00     0.00   673.85     0  22:00        0.00
  255                  JUNCTION     0.01     0.03   668.98     0  12:21        0.03
  257                  JUNCTION     4.96     8.08   678.61     0  12:14        8.08
  26                   JUNCTION     0.49     1.08   666.57     0  12:50        1.08
  260                  JUNCTION     0.13     0.65   673.09     0  13:04        0.65
  261                  JUNCTION     0.15     0.74   673.36     0  13:02        0.74
  267                  JUNCTION     0.02     0.11   696.87     0  12:15        0.11
  269                  JUNCTION     4.07     7.11   674.25     0  13:44        7.11
  276                  JUNCTION     0.01     0.01   680.47     0  12:40        0.01
  281                  JUNCTION     0.28     1.00   673.47     0  13:02        1.00
  285                  JUNCTION     0.00     0.00   681.46     0  09:00        0.00
  297                  JUNCTION     0.01     0.06   674.10     0  13:43        0.06
  304                  JUNCTION     0.06     0.31   675.13     0  13:07        0.31
  306                  JUNCTION     0.04     0.23   680.18     0  12:31        0.23
  31                   JUNCTION     0.01     0.07   671.73     0  12:15        0.07
  32                   JUNCTION     0.01     0.01   697.87     0  07:17        0.01
  323                  JUNCTION     0.90     1.63   680.27     0  12:31        1.63
  325                  JUNCTION     0.04     0.22   677.34     0  13:04        0.22
  33                   JUNCTION     0.04     0.06   693.96     0  07:11        0.06
  333                  JUNCTION     0.92     4.33   681.17     0  13:04        4.33
  348                  JUNCTION     0.01     0.05   682.72     0  12:31        0.05
  351                  JUNCTION     3.54     6.99   682.62     0  13:00        6.99
  371                  JUNCTION     0.02     0.13   697.18     0  12:31        0.13
  384                  JUNCTION     0.31     1.43   682.53     0  13:04        1.43
  387                  JUNCTION     1.99     3.24   697.19     0  12:30        3.24
  393                  JUNCTION     0.09     0.13   688.46     0  07:12        0.13
  4                    JUNCTION     0.02     0.03   691.33     0  07:44        0.03
  407                  JUNCTION     0.02     0.08   708.45     0  12:32        0.08
  46                   JUNCTION     0.20     0.70   687.97     0  12:30        0.70
  56                   JUNCTION     0.09     0.14   685.37     0  07:20        0.14
  64                   JUNCTION     0.06     0.08   688.54     0  12:58        0.08
  7                    JUNCTION     0.05     0.23   674.74     0  12:32        0.23
  74                   JUNCTION     0.18     0.58   666.55     0  12:49        0.58
  76                   JUNCTION     0.07     0.10   688.91     0  12:55        0.10
  77                   JUNCTION     0.11     0.51   667.96     0  12:45        0.51
  879                  JUNCTION     0.01     0.02   697.42     0  08:00        0.02
  882                  JUNCTION     0.02     0.07   692.55     0  12:48        0.07
  893                  JUNCTION     0.02     0.08   702.76     0  12:18        0.08
  894                  JUNCTION     0.02     0.08   705.35     0  12:16        0.08
  95                   JUNCTION     0.03     0.13   694.30     0  12:30        0.13
  956                  JUNCTION     0.02     0.08   694.45     0  12:35        0.08
  974                  JUNCTION     0.05     0.24   675.95     0  13:07        0.24
  982                  JUNCTION     0.11     0.49   676.33     0  13:05        0.49
  DUMMY2D              JUNCTION     0.00     0.00   211.49     0  00:00        0.00
  JCT-10               JUNCTION     0.22     0.52   670.54     0  12:32        0.52
  JCT-100              JUNCTION     0.35     2.54   719.28     0  12:51        2.51
  JCT-102              JUNCTION     0.45     2.98   718.98     0  12:51        2.98
  JCT-104              JUNCTION     0.53     3.37   718.31     0  13:13        3.37
  JCT-106              JUNCTION     0.63     3.22   716.69     0  13:13        3.22
  JCT-108              JUNCTION     0.36     1.73   714.62     0  13:13        1.73
  JCT-110              JUNCTION     0.15     0.29   711.06     0  13:00        0.29
  JCT-112              JUNCTION     0.05     0.11   719.60     0  13:14        0.11
  JCT-114              JUNCTION     0.09     0.14   719.79     0  13:00        0.14
  JCT-116              JUNCTION     0.07     0.12   718.93     0  13:00        0.12
  JCT-118              JUNCTION     0.15     0.27   715.11     0  13:00        0.27
  JCT-12               JUNCTION     0.23     0.54   669.72     0  12:36        0.54
  JCT-120              JUNCTION     0.20     0.44   713.84     0  13:02        0.44
  JCT-122              JUNCTION     0.16     0.31   712.61     0  13:00        0.31
  JCT-124              JUNCTION     0.17     0.35   708.80     0  13:17        0.35
  JCT-126              JUNCTION     0.20     0.48   703.77     0  13:23        0.48
  JCT-128              JUNCTION     0.10     0.18   699.80     0  13:23        0.18
  JCT-130              JUNCTION     0.04     0.11   715.76     0  13:14        0.11
  JCT-132              JUNCTION     0.05     0.12   715.56     0  13:15        0.12
  JCT-134              JUNCTION     0.05     0.07   712.08     0  07:11        0.07
  JCT-136              JUNCTION     0.02     0.03   707.59     0  07:17        0.03
  JCT-138              JUNCTION     9.18    25.57   705.57     1  02:06       17.34
  JCT-14               JUNCTION     0.11     0.26   668.60     0  12:37        0.26
  JCT-140              JUNCTION     7.22    19.03   701.03     1  02:06       15.17
  JCT-142              JUNCTION     4.45    14.21   699.21     0  12:58       12.98
  JCT-144              JUNCTION     3.96    12.86   698.36     0  13:00       12.22
  JCT-146              JUNCTION     3.69    11.88   697.88     0  13:16       11.21
  JCT-148              JUNCTION    18.12    36.42   704.12     0  13:17       32.40
  JCT-150              JUNCTION    16.06    30.56   700.56     0  13:17       27.18
  JCT-152              JUNCTION    11.85    23.57   698.57     0  13:17       20.82
  JCT-154              JUNCTION     0.49     0.98   689.98     0  13:20        0.97
  JCT-156              JUNCTION     8.80    13.68   694.16     0  02:31       13.00
  JCT-16               JUNCTION     0.09     0.14   697.02     0  13:00        0.14
  JCT-160              JUNCTION     0.14     0.19   671.22     0  01:02        0.19
  JCT-162              JUNCTION     0.29     0.50   670.67     0  12:56        0.50
  JCT-164              JUNCTION     0.35     0.79   668.38     0  13:04        0.79
  JCT-166              JUNCTION     0.21     0.50   667.44     0  13:21        0.50
  JCT-168              JUNCTION     0.34     0.77   665.64     0  13:32        0.77
  JCT-170              JUNCTION     0.07     0.21   664.17     0  13:36        0.21
  JCT-174              JUNCTION     0.03     0.18   693.44     0  12:38        0.18
  JCT-176              JUNCTION     0.02     0.11   695.00     0  12:36        0.11
  JCT-178              JUNCTION     0.02     0.11   698.28     0  12:33        0.11
  JCT-18               JUNCTION     0.14     0.25   690.23     0  14:00        0.25
  JCT-180              JUNCTION     0.03     0.17   700.42     0  12:32        0.17
  JCT-182              JUNCTION     0.02     0.13   702.62     0  12:31        0.13
  JCT-184              JUNCTION     0.03     0.16   703.16     0  12:15        0.16
  JCT-20               JUNCTION     0.15     0.30   682.87     0  14:45        0.30
  JCT-22               JUNCTION     0.96     5.79   674.91     0  15:03        5.79
  JCT-24               JUNCTION     0.10     0.20   705.03     0  14:24        0.20
  JCT-26               JUNCTION     0.13     0.22   699.83     0  14:00        0.22
  JCT-28               JUNCTION     0.18     0.29   685.44     0  14:43        0.29
  JCT-30               JUNCTION     1.00     5.13   676.74     0  15:03        5.13
  JCT-32               JUNCTION     0.13     0.22   710.41     0  14:00        0.22
  JCT-34               JUNCTION     0.15     0.25   703.37     0  14:00        0.25
  JCT-36               JUNCTION     0.19     0.31   687.70     0  14:00        0.31
  JCT-38               JUNCTION     0.84     4.42   677.53     0  15:03        4.41
  JCT-40               JUNCTION     0.08     0.17   703.61     0  14:25        0.17
  JCT-42               JUNCTION     0.19     0.40   699.79     0  14:27        0.40
  JCT-44               JUNCTION     0.16     0.27   697.43     0  14:00        0.27
  JCT-46               JUNCTION     0.98     4.02   685.34     0  13:20        4.02
  JCT-48               JUNCTION     0.94     4.00   678.61     0  13:58        4.00
  JCT-50               JUNCTION     0.06     0.14   724.42     0  13:14        0.14
  JCT-52               JUNCTION     0.12     0.28   721.28     0  13:15        0.28
  JCT-54               JUNCTION     0.08     0.16   717.83     0  13:16        0.16
  JCT-56               JUNCTION     0.41     2.86   690.91     0  13:00        2.86
  JCT-58               JUNCTION     0.47     2.62   688.67     0  13:00        2.62
  JCT-60               JUNCTION     0.29     0.47   684.68     0  13:20        0.47
  JCT-62               JUNCTION     0.06     0.11   725.51     0  13:00        0.11
  JCT-64               JUNCTION     0.08     0.13   711.46     0  13:00        0.13
  JCT-66               JUNCTION     0.14     0.25   697.82     0  13:00        0.25
  JCT-68               JUNCTION     0.30     0.38   692.38     0  13:00        0.38
  JCT-70               JUNCTION     0.08     0.12   717.96     0  13:00        0.12
  JCT-72               JUNCTION     0.12     0.15   710.54     0  13:00        0.15
  JCT-74               JUNCTION     1.68     4.05   703.86     0  12:49        4.05
  JCT-76               JUNCTION     2.28     4.00   701.16     0  10:39        4.00
  JCT-78               JUNCTION     0.15     0.19   712.38     0  13:52        0.19
  JCT-80               JUNCTION     0.14     0.20   710.56     0  13:54        0.20
  JCT-82               JUNCTION     0.09     0.16   715.26     0  13:52        0.16
  JCT-84               JUNCTION     0.11     0.18   714.21     0  13:53        0.18
  JCT-86               JUNCTION     0.08     0.16   725.78     0  13:00        0.16
  JCT-88               JUNCTION     0.11     0.23   722.24     0  13:00        0.23
  JCT-90               JUNCTION     0.12     0.26   719.14     0  13:16        0.26
  JCT-92               JUNCTION     0.15     0.31   715.67     0  13:00        0.31
  JCT-94               JUNCTION     0.13     0.28   711.28     0  13:18        0.28
  JCT-96               JUNCTION     0.16     0.27   702.27     0  13:17        0.27
  JCT-98               JUNCTION     0.08     0.13   720.93     0  13:00        0.13
  DUMMYOUTFALL         OUTFALL      0.00     0.00   210.00     0  00:00        0.00
  OFALL-10             OUTFALL      0.29     0.47   680.47     0  13:20        0.47
  OFALL-12             OUTFALL      0.03     0.12   660.12     0  13:36        0.12
  VIADUCT1             OUTFALL      0.01     0.05   696.05     0  12:16        0.05
  VIADUCT2             OUTFALL      0.01     0.02   692.02     0  12:35        0.02
  1114                 STORAGE      0.01     0.05   683.69     0  12:30        0.05
  1115                 STORAGE      1.63     2.68   685.18     0  21:16        2.68
  117                  STORAGE      0.59     1.54   668.34     0  12:45        1.54
  163                  STORAGE      0.45     0.85   668.98     0  12:21        0.85
  17                   STORAGE      0.04     0.17   683.11     0  12:30        0.17
  187                  STORAGE      0.18     0.69   672.27     0  13:04        0.69
  229                  STORAGE      0.05     0.24   674.25     0  13:46        0.24
  421                  STORAGE      0.06     0.31   705.86     0  12:15        0.31
  83                   STORAGE      3.05     6.00   666.50     0  15:51        6.00
  989                  STORAGE      0.00     0.01   684.04     0  07:36        0.01
  STOR-10              STORAGE      0.53     0.67   680.67     0  14:52        0.64
  STOR-12              STORAGE      0.48     0.64   685.64     0  11:58        0.63
  STOR-14              STORAGE      0.40     0.63   658.13     0  12:35        0.62
  STOR-16              STORAGE      5.75    18.66   671.49     0  15:08       18.65
  
  
  *******************
  Node Inflow Summary
  *******************
  
  -------------------------------------------------------------------------------------------------
                                  Maximum  Maximum                  Lateral       Total        Flow
                                  Lateral    Total  Time of Max      Inflow      Inflow     Balance
                                   Inflow   Inflow   Occurrence      Volume      Volume       Error
  Node                 Type           CFS      CFS  days hr:min    10^6 gal    10^6 gal     Percent
  -------------------------------------------------------------------------------------------------
  1001                 JUNCTION      7.82     7.82     0  12:30       0.491       0.491       0.038
  105                  JUNCTION      7.13     7.19     0  12:15       0.414       0.447       0.017
  13                   JUNCTION      0.02     0.03     0  07:44     0.00541     0.00978       0.136
  136                  JUNCTION     12.39    79.64     0  13:00       0.864        6.55       6.279
  137                  JUNCTION      0.03     0.05     0  12:48     0.00857      0.0127       0.222
  140                  JUNCTION      0.28    87.91     0  12:45      0.0906        6.99       1.723
  144                  JUNCTION      0.10     3.95     0  10:44      0.0336        0.22     227.102
  147                  JUNCTION      0.03     0.15     0  12:36     0.00945      0.0177      -0.250
  15                   JUNCTION      0.03     0.06     0  07:44        0.01      0.0198       0.016
  150                  JUNCTION      0.05    12.42     0  12:30      0.0151       0.772       0.027
  158                  JUNCTION      0.29    67.42     0  13:04      0.0931        5.17       0.012
  166                  JUNCTION      0.00     2.49     0  10:40           0      0.0891     278.176
  173                  JUNCTION      0.08     3.97     0  12:31      0.0262       0.405      -0.102
  179                  JUNCTION      0.11    17.56     0  12:21      0.0356        1.04      -0.011
  18                   JUNCTION      0.01     0.01     0  08:00      0.0023     0.00446       0.173
  183                  JUNCTION      7.00    19.57     0  12:15       0.418        1.18      -0.021
  19                   JUNCTION      7.89    22.25     0  12:30       0.448        1.34       0.006
  200                  JUNCTION      8.71    13.69     0  12:30       0.506        1.02       0.037
  201                  JUNCTION      6.25     6.25     0  12:30       0.455       0.478       1.579
  205                  JUNCTION      0.24    17.02     0  12:16      0.0759        1.23      26.880
  209                  JUNCTION      6.75    37.36     0  12:21       0.358        1.73      96.403
  232                  JUNCTION     10.37    13.88     0  12:30       0.689        1.17       1.909
  244                  JUNCTION      0.15     6.95     0  12:15      0.0496       0.337      -0.044
  25                   JUNCTION      0.00     0.00     0  07:00    5.18e-06    5.18e-06       5.177 gal
  255                  JUNCTION      0.33     2.18     0  12:16       0.106       0.123      -0.087
  257                  JUNCTION      6.79     6.79     0  12:15       0.408       0.416      44.950
  26                   JUNCTION      0.03    13.55     0  12:13      0.0111       0.508      35.005
  260                  JUNCTION      0.00    52.50     0  13:02           0        3.16       0.029
  261                  JUNCTION      0.00    52.47     0  13:01     0.00125        3.14       0.012
  267                  JUNCTION     12.76    12.76     0  12:15       0.767       0.767       0.000
  269                  JUNCTION      7.62    31.96     0  12:21       0.421        1.65      78.730
  276                  JUNCTION      0.30     0.30     0  12:00      0.0954      0.0958      -0.012
  281                  JUNCTION      6.90    57.88     0  12:57       0.373        3.56       1.006
  285                  JUNCTION      0.01     0.01     0  07:00     0.00341     0.00341      -8.973
  297                  JUNCTION      0.01     1.31     0  13:36     0.00267      0.0813      -0.103
  304                  JUNCTION      0.00     0.71     0  13:07    0.000671      0.0305      -0.012
  306                  JUNCTION      0.16    38.98     0  12:31      0.0518        1.96      -0.005
  31                   JUNCTION      6.63     6.63     0  12:15       0.399       0.399      -0.026
  32                   JUNCTION      0.00     0.00     0  07:00    0.000855    0.000855       0.055
  323                  JUNCTION     15.99    39.12     0  12:30        1.03        2.14      12.050
  325                  JUNCTION      0.00    22.74     0  13:04     0.00117        1.19       0.021
  33                   JUNCTION      0.05     0.05     0  07:00       0.016       0.016       0.123
  333                  JUNCTION      0.03    22.74     0  13:04      0.0094        1.19       0.120
  348                  JUNCTION      5.70     8.91     0  12:30        0.33       0.561       0.022
  351                  JUNCTION      0.03    26.59     0  12:30     0.00843        1.29     117.499
  371                  JUNCTION      0.01    24.03     0  12:30     0.00374        1.11       0.006
  384                  JUNCTION      4.75    35.19     0  12:31       0.247        1.43       0.989
  387                  JUNCTION     16.60    24.14     0  12:30        1.08        1.57      41.804
  393                  JUNCTION      0.11     0.11     0  07:00      0.0373      0.0373       0.105
  4                    JUNCTION      0.00     0.01     0  07:32           0     0.00442       0.229
  407                  JUNCTION      0.02     7.72     0  12:30     0.00736       0.496      -0.016
  46                   JUNCTION      4.19     4.25     0  12:30       0.271       0.293       0.027
  56                   JUNCTION      0.08     0.10     0  07:11      0.0249      0.0334       0.210
  64                   JUNCTION      0.02     0.06     0  12:56      0.0054       0.022       0.074
  7                    JUNCTION     10.62    27.65     0  12:30       0.551        1.61       0.062
  74                   JUNCTION      0.01   106.41     0  12:47     0.00348        7.66      -0.047
  76                   JUNCTION      0.02     0.05     0  12:52      0.0073      0.0166       0.231
  77                   JUNCTION      0.16   102.02     0  12:45      0.0498        7.32      -0.003
  879                  JUNCTION      0.00     0.01     0  07:17     0.00132     0.00217       0.088
  882                  JUNCTION      0.02     1.63     0  12:45     0.00628        0.24       0.298
  893                  JUNCTION      0.00     6.92     0  12:16    0.000337       0.448      -0.065
  894                  JUNCTION      0.00    10.24     0  12:15           0       0.638      -0.020
  95                   JUNCTION     12.45    12.45     0  12:30       0.759       0.759       0.013
  956                  JUNCTION      3.79     8.06     0  12:30       0.393       0.628       0.211
  974                  JUNCTION      0.01    22.72     0  13:06      0.0044        1.19       0.082
  982                  JUNCTION      0.00    22.74     0  13:04    0.000988        1.19       0.146
  DUMMY2D              JUNCTION      0.00     0.00     0  00:00           0           0       0.000 gal
  JCT-10               JUNCTION      2.61     5.78     0  12:30       0.202       0.633       0.058
  JCT-100              JUNCTION      0.08     0.17     0  13:00      0.0171      0.0388       0.167
  JCT-102              JUNCTION      0.10     0.27     0  13:00      0.0212        0.06       0.125
  JCT-104              JUNCTION      0.06     0.36     0  12:50      0.0116      0.0812       0.168
  JCT-106              JUNCTION      0.06     0.42     0  12:59     0.00888      0.0899       0.202
  JCT-108              JUNCTION      0.09     0.50     0  13:13      0.0124       0.102       0.110
  JCT-110              JUNCTION      0.05     0.55     0  13:00      0.0106       0.113       0.059
  JCT-112              JUNCTION      0.07     0.07     0  13:13        0.01        0.01       0.089
  JCT-114              JUNCTION      0.05     0.05     0  12:59      0.0147      0.0147       0.211
  JCT-116              JUNCTION      0.08     0.08     0  12:59      0.0169      0.0169       0.068
  JCT-118              JUNCTION      0.12     0.20     0  13:00      0.0261       0.043       0.136
  JCT-12               JUNCTION      0.05     1.87     0  12:32       0.017        0.27       0.187
  JCT-120              JUNCTION      0.06     0.31     0  13:00     0.00828      0.0592       0.232
  JCT-122              JUNCTION      0.10     0.40     0  13:00      0.0214      0.0803       0.073
  JCT-124              JUNCTION      0.07     0.54     0  13:00      0.0101       0.101       0.099
  JCT-126              JUNCTION      0.01     0.54     0  13:17      0.0018       0.103       0.073
  JCT-128              JUNCTION      0.01     0.54     0  13:22     0.00287       0.106       0.035
  JCT-130              JUNCTION      0.08     0.08     0  13:13       0.011       0.011       0.072
  JCT-132              JUNCTION      0.06     0.06     0  13:13     0.00801     0.00801       0.096
  JCT-134              JUNCTION      0.02     0.02     0  07:00      0.0064      0.0064       0.128
  JCT-136              JUNCTION      0.00     0.02     0  07:13           0     0.00639       0.002
  JCT-138              JUNCTION      0.02     3.52     0  07:03      0.0063       0.345       3.475
  JCT-14               JUNCTION      0.01     1.87     0  12:36     0.00198       0.272       0.061
  JCT-140              JUNCTION      0.02     3.59     0  13:01     0.00794       0.365      -3.872
  JCT-142              JUNCTION      0.02     5.75     0  13:16     0.00743       0.478       4.423
  JCT-144              JUNCTION      0.01     5.16     0  13:16     0.00288       0.437       5.084
  JCT-146              JUNCTION      0.00     4.86     1  01:31     0.00105       0.505       2.697
  JCT-148              JUNCTION      0.00    12.65     1  00:19           0       0.772      -5.844
  JCT-150              JUNCTION      0.00     7.58     0  13:16           0       0.747       8.315
  JCT-152              JUNCTION      0.00     5.39     0  13:18           0       0.706       0.736
  JCT-154              JUNCTION      0.01     7.65     0  13:39     0.00269        1.66       0.293
  JCT-156              JUNCTION      0.00     3.32     0  15:09    0.000927       0.978       0.716
  JCT-16               JUNCTION      0.14     0.14     0  12:59      0.0434      0.0434       0.035
  JCT-160              JUNCTION      1.77     1.77     0  00:00        1.24        1.24       1.337
  JCT-162              JUNCTION      0.00    13.45     0  12:33           0        1.89       4.227
  JCT-164              JUNCTION      0.00    32.68     0  12:45           0        3.07       3.022
  JCT-166              JUNCTION      0.00    29.61     0  13:09           0        2.87       1.017
  JCT-168              JUNCTION      0.00    28.64     0  13:21           0        2.81       2.271
  JCT-170              JUNCTION      0.00    27.89     0  13:33           0        2.72       0.373
  JCT-174              JUNCTION      0.00     3.64     0  12:36           0       0.197      -0.007
  JCT-176              JUNCTION      0.00     3.64     0  12:34           0       0.198      -0.009
  JCT-178              JUNCTION      0.00     3.65     0  12:32           0         0.2      -0.036
  JCT-18               JUNCTION      0.27     0.41     0  14:00      0.0539      0.0973       0.047
  JCT-180              JUNCTION      0.00     3.70     0  12:31           0       0.201      -0.024
  JCT-182              JUNCTION      0.00     3.72     0  12:30           0       0.202      -0.024
  JCT-184              JUNCTION      3.74     3.74     0  12:15       0.202       0.202      -0.029
  JCT-20               JUNCTION      0.25     0.65     0  14:24      0.0474       0.145       0.038
  JCT-22               JUNCTION      0.23     3.84     0  13:46      0.0633       0.978       0.018
  JCT-24               JUNCTION      0.22     0.22     0  14:24      0.0466      0.0466       0.035
  JCT-26               JUNCTION      0.22     0.44     0  14:00      0.0681       0.115       0.040
  JCT-28               JUNCTION      0.24     0.67     0  14:00       0.078       0.193       0.040
  JCT-30               JUNCTION      0.22     2.93     0  13:50      0.0645       0.771       0.062
  JCT-32               JUNCTION      0.33     0.33     0  13:59      0.0807      0.0807       0.026
  JCT-34               JUNCTION      0.22     0.56     0  14:00      0.0696        0.15       0.041
  JCT-36               JUNCTION      0.25     0.79     0  14:00      0.0804       0.231       0.036
  JCT-38               JUNCTION      0.18     2.04     0  13:51      0.0406       0.514       0.065
  JCT-40               JUNCTION      0.09     0.09     0  14:24      0.0169      0.0169       0.124
  JCT-42               JUNCTION      0.27     0.36     0  14:24      0.0639      0.0808       0.073
  JCT-44               JUNCTION      0.30     0.66     0  14:00      0.0917       0.172       0.038
  JCT-46               JUNCTION      0.28     0.93     0  14:00      0.0537       0.226       0.034
  JCT-48               JUNCTION      0.23     1.07     0  13:51      0.0432       0.259       0.055
  JCT-50               JUNCTION      0.09     0.09     0  13:13      0.0135      0.0135       0.061
  JCT-52               JUNCTION      0.20     0.29     0  13:14       0.038      0.0516       0.045
  JCT-54               JUNCTION      0.09     0.37     0  13:15      0.0173      0.0688       0.032
  JCT-56               JUNCTION      0.09     0.46     0  13:00      0.0176      0.0864       0.082
  JCT-58               JUNCTION      0.08     0.54     0  13:00      0.0165       0.103       0.094
  JCT-60               JUNCTION      0.01     8.44     0  13:20      0.0048         2.2       0.045
  JCT-62               JUNCTION      0.09     0.09     0  12:59      0.0192      0.0192       0.073
  JCT-64               JUNCTION      0.09     0.18     0  13:00      0.0204      0.0395       0.079
  JCT-66               JUNCTION      0.09     0.27     0  13:00      0.0197      0.0592       0.128
  JCT-68               JUNCTION      0.02     1.09     0  13:00     0.00539       0.472       0.102
  JCT-70               JUNCTION      0.05     0.10     0  13:00       0.018      0.0326       0.137
  JCT-72               JUNCTION      0.09     0.19     0  13:00      0.0487      0.0813       0.089
  JCT-74               JUNCTION      0.04     0.55     0  13:54       0.013       0.203       0.150
  JCT-76               JUNCTION      2.62     3.13     0  13:50       0.478        0.68       0.038
  JCT-78               JUNCTION      0.12     0.12     0  13:50      0.0537      0.0537       0.120
  JCT-80               JUNCTION      0.06     0.32     0  13:53      0.0165       0.109       0.132
  JCT-82               JUNCTION      0.07     0.07     0  13:50       0.016       0.016       0.110
  JCT-84               JUNCTION      0.08     0.14     0  13:52      0.0227      0.0387       0.126
  JCT-86               JUNCTION      0.14     0.14     0  12:59      0.0234      0.0234       0.048
  JCT-88               JUNCTION      0.08     0.22     0  13:00      0.0151      0.0385       0.107
  JCT-90               JUNCTION      0.07     0.28     0  13:00     0.00993      0.0483       0.111
  JCT-92               JUNCTION      0.10     0.38     0  13:00      0.0198      0.0681       0.093
  JCT-94               JUNCTION      0.10     0.48     0  13:17      0.0138      0.0818       0.108
  JCT-96               JUNCTION      0.39     1.42     0  13:16        0.13       0.324       0.046
  JCT-98               JUNCTION      0.09     0.09     0  12:59      0.0218      0.0218       0.072
  DUMMYOUTFALL         OUTFALL       0.00     0.00     0  00:00           0           0       0.000 gal
  OFALL-10             OUTFALL       0.00     8.42     0  13:20           0         2.2       0.000
  OFALL-12             OUTFALL       0.00    27.84     0  13:36           0         2.7       0.000
  VIADUCT1             OUTFALL       0.00     3.22     0  12:16           0       0.187       0.000
  VIADUCT2             OUTFALL       0.00     1.12     0  12:35           0      0.0834       0.000
  1114                 STORAGE      10.40    10.40     0  12:30       0.604       0.604      -0.027
  1115                 STORAGE       7.15     7.15     0  12:15       0.357       0.357       0.016
  117                  STORAGE      12.23   103.84     0  12:43       0.812        7.82       0.844
  163                  STORAGE       0.00    19.25     0  12:16           0        1.23       6.121
  17                   STORAGE       9.48    17.23     0  12:30        0.54        1.06       0.031
  187                  STORAGE       7.04    67.65     0  13:00       0.399        5.19       0.116
  229                  STORAGE       0.00    22.24     0  13:23           0        1.28       0.193
  421                  STORAGE      10.33    10.33     0  12:15       0.638       0.638      -0.018
  83                   STORAGE       0.00   117.37     0  12:48           0        8.67      14.689
  989                  STORAGE       0.00     0.11     0  07:14           0      0.0373       0.267
  STOR-10              STORAGE       0.00     1.42     0  13:17           0       0.324       0.355
  STOR-12              STORAGE       0.00     0.54     0  13:23           0       0.106       1.322
  STOR-14              STORAGE       0.00     1.88     0  12:37           0       0.278       2.176
  STOR-16              STORAGE       0.00     3.73     0  13:55           0       0.978       0.168
  
  
  **********************
  Node Surcharge Summary
  **********************
  
  Surcharging occurs when water rises above the top of the highest conduit.
  ---------------------------------------------------------------------
                                               Max. Height   Min. Depth
                                   Hours       Above Crown    Below Rim
  Node                 Type      Surcharged           Feet         Feet
  ---------------------------------------------------------------------
  136                  JUNCTION        0.61          0.034        7.886
  144                  JUNCTION       15.12          0.628        5.622
  166                  JUNCTION        2.14          0.199        6.231
  205                  JUNCTION        3.56          0.985        9.185
  257                  JUNCTION       14.72          6.078        7.442
  269                  JUNCTION       13.76          3.106        6.624
  333                  JUNCTION        0.86          1.583        3.891
  351                  JUNCTION       13.64          3.986        4.893
  JCT-100              JUNCTION        1.20          2.036        1.464
  JCT-102              JUNCTION        1.72          2.484        0.000
  JCT-104              JUNCTION        2.06          2.868        2.460
  JCT-106              JUNCTION        3.33          2.719        3.787
  JCT-108              JUNCTION        1.96          1.232        2.210
  JCT-138              JUNCTION       24.70         24.073        6.052
  JCT-140              JUNCTION       23.17         17.526       11.461
  JCT-142              JUNCTION       18.93         12.707       10.748
  JCT-144              JUNCTION       18.73         11.356        4.373
  JCT-146              JUNCTION       18.68         10.377       10.536
  JCT-148              JUNCTION       21.15         34.924        5.060
  JCT-150              JUNCTION       20.67         29.058       15.691
  JCT-152              JUNCTION       19.39         22.073       11.064
  JCT-156              JUNCTION       23.66         12.182        0.000
  JCT-22               JUNCTION        3.74          4.794        8.524
  JCT-30               JUNCTION        3.53          4.130        5.131
  JCT-38               JUNCTION        3.28          3.416        1.753
  JCT-46               JUNCTION        4.30          3.523        0.000
  JCT-48               JUNCTION        4.79          3.333        0.000
  JCT-56               JUNCTION        1.51          2.358        1.142
  JCT-58               JUNCTION        2.36          2.119        3.381
  JCT-74               JUNCTION       11.88          3.550        0.000
  JCT-76               JUNCTION       13.60          3.495        0.000
  
  
  *********************
  Node Flooding Summary
  *********************
  
  Flooding refers to all water that overflows a node, whether it ponds or not.
  --------------------------------------------------------------------------
                                                             Total   Maximum
                                 Maximum   Time of Max       Flood    Ponded
                        Hours       Rate    Occurrence      Volume     Depth
  Node                 Flooded       CFS   days hr:min    10^6 gal      Feet
  --------------------------------------------------------------------------
  JCT-102                 0.67      0.03      0  13:00       0.000     0.000
  JCT-46                  3.38      0.18      0  14:00       0.010     0.000
  JCT-48                  2.72      0.33      0  14:52       0.016     0.000
  JCT-74                  1.47      0.03      0  13:54       0.001     0.000
  JCT-76                 11.35      2.32      0  13:51       0.272     0.000
  
  
  **********************
  Storage Volume Summary
  **********************
  
  ------------------------------------------------------------------------------------------------
                         Average    Avg   Evap  Exfil     Maximum    Max    Time of Max    Maximum
                          Volume   Pcnt   Pcnt   Pcnt      Volume   Pcnt     Occurrence    Outflow
  Storage Unit          1000 ftł   Full   Loss   Loss    1000 ftł   Full    days hr:min        CFS
  ------------------------------------------------------------------------------------------------
  1114                     0.000    0.0    0.0    0.0       0.003    0.2       0  12:30      10.36
  1115                    26.410    5.0    0.3    0.0      47.543    9.0       0  21:16       0.00
  117                      0.026    0.0    0.0    0.0       0.067    0.0       0  12:45     103.81
  163                      0.020    0.0    0.0    0.0       0.037    0.0       0  12:21      18.94
  17                       0.002    0.4    0.0    0.0       0.008    1.8       0  12:30      17.11
  187                      0.008    0.0    0.0    0.0       0.030    0.0       0  13:04      67.16
  229                      0.002    0.0    0.0    0.0       0.011    0.0       0  13:46      16.28
  421                      0.003    0.0    0.0    0.0       0.014    0.0       0  12:15      10.25
  83                     209.046   13.4    0.1   66.8     504.660   32.4       0  15:51      19.56
  989                      0.000    0.0    0.0    0.0       0.000    0.0       0  07:36       0.11
  STOR-10                  0.117    1.7    0.0    0.0       0.149    2.1       0  14:52       3.50
  STOR-12                  0.053    1.9    0.0    0.0       0.072    2.6       0  11:58       3.50
  STOR-14                  0.374    0.8    0.0    0.0       0.583    1.2       0  12:35      12.65
  STOR-16                  0.534   18.2    0.0    0.0       1.733   59.0       0  15:08       3.32
  
  
  ***********************
  Outfall Loading Summary
  ***********************
  
  ---------------------------------------------------------------------------------------
                         Flow       Avg       Max       Total         Total         Total
                         Freq      Flow      Flow      Volume            TN           TSS
  Outfall Node           Pcnt       CFS       CFS    10^6 gal           lbs           lbs
  ---------------------------------------------------------------------------------------
  DUMMYOUTFALL           0.00      0.00      0.00       0.000         0.000         0.000
  OFALL-10              99.80      3.64      8.42       2.197         0.000         0.000
  OFALL-12              79.04      6.95     27.84       2.705         0.000         0.000
  VIADUCT1              59.12      0.69      3.22       0.187         0.000         0.000
  VIADUCT2              99.30      0.18      1.12       0.083         0.000         0.000
  ---------------------------------------------------------------------------------------
  System                67.45     11.46     38.15       5.172         0.000         0.000
  
  
  ********************
  Link Flow Summary
  ********************
  
  -----------------------------------------------------------------------------
                                 Maximum  Time of Max   Maximum    Max/    Max/
                                  |Flow|   Occurrence   |Veloc|    Full    Full
  Link                 Type          CFS  days hr:min    ft/sec    Flow   Depth
  -----------------------------------------------------------------------------
  1001OF               CONDUIT      7.59     0  12:30      0.77    0.02    0.10
  105OF                CONDUIT      7.05     0  12:15      0.13    0.00    0.52
  1114                 CONDUIT      0.13     0  12:30      0.16    0.01    0.53
  117                  CONDUIT     11.15     0  12:45      9.76    0.01    0.36
  117OF                CONDUIT     92.65     0  12:45      1.67    0.21    0.51
  1209                 CONDUIT      1.62     0  12:45      5.15    0.23    0.23
  1211                 CONDUIT      0.03     0  12:48      1.12    0.00    0.05
  1225                 CONDUIT      0.03     0  12:52      0.67    0.00    0.04
  1226                 CONDUIT      0.00     0  07:17      0.30    0.00    0.01
  1228                 CONDUIT      0.09     0  12:16      3.11    0.01    0.08
  1230                 CONDUIT      0.07     0  12:19      0.38    0.01    0.54
  1249                 CONDUIT      0.11     0  07:14      3.18    0.00    0.03
  1269                 CONDUIT      0.04     0  12:35      0.83    0.01    0.12
  1270                 CONDUIT      0.02     0  12:52      0.95    0.02    0.14
  1275                 CONDUIT      0.01     0  07:44      0.50    0.00    0.02
  1276                 CONDUIT      0.03     0  07:44      0.95    0.00    0.02
  1277                 CONDUIT      4.20     0  12:30      5.63    0.05    0.11
  1281                 CONDUIT      0.26     0  12:31      3.29    0.04    0.14
  1284                 CONDUIT      0.15     0  12:39      2.98    0.01    0.53
  1285                 CONDUIT      0.35     0  12:21      0.34    0.04    1.00
  1288                 CONDUIT     21.56     0  12:31      2.43    0.15    0.74
  1289                 CONDUIT     22.64     0  13:04      4.68    0.53    0.76
  1290                 CONDUIT      0.78     0  13:45      0.69    0.07    0.52
  1291                 CONDUIT      0.71     0  13:08      4.43    0.01    0.06
  1293                 CONDUIT      2.63     0  13:02      1.42    0.10    0.25
  1294                 CONDUIT      0.59     0  12:31      1.34    0.12    0.60
  1297                 CONDUIT      0.08     0  12:30      0.18    0.02    0.56
  1298                 CONDUIT      0.20     0  12:31      0.43    0.03    0.56
  1299                 CONDUIT      0.03     0  07:11      0.75    0.01    0.12
  1300                 CONDUIT      0.10     0  07:44      3.88    0.03    0.09
  1306                 CONDUIT      9.22     0  12:45      1.85    0.23    0.58
  1307                 CONDUIT      4.82     0  12:46      1.11    0.08    0.37
  1308                 CONDUIT     16.94     0  12:17      2.85    0.51    0.85
  1312                 CONDUIT      0.00     0  09:00      0.00    0.00    0.03
  1314                 CONDUIT      0.05     0  12:15      0.12    0.01    0.54
  1315                 CONDUIT      0.60     0  12:33      2.12    0.01    0.07
  1316                 CONDUIT      0.02     0  08:00      2.58    0.01    0.13
  1317                 CONDUIT      4.14     0  13:04      5.08    0.07    0.15
  1328                 CONDUIT      0.00     0  12:40      0.31    0.00    0.51
  136OF                CONDUIT     70.54     0  13:00      0.61    0.15    1.00
  13OF                 CONDUIT      3.64     0  12:36      0.82    0.01    0.10
  140OF                CONDUIT     83.09     0  12:46      0.82    0.24    0.88
  144                  CONDUIT      0.05     0  12:16      0.22    0.00    0.51
  144OF                CONDUIT      1.80     0  12:16      0.13    0.00    0.51
  150OF                CONDUIT     11.97     0  12:32      1.62    0.00    0.04
  158                  CONDUIT      2.46     0  13:05      0.53    0.02    0.55
  158OF                CONDUIT     64.94     0  13:05      1.03    0.04    0.58
  15OF                 CONDUIT      3.63     0  12:38      0.94    0.02    0.08
  163OF                CONDUIT      3.68     0  10:44      0.11    0.00    0.71
  166OF                CONDUIT      2.46     0  10:40      0.17    0.00    0.67
  1791OF               CONDUIT     17.10     0  12:21      0.68    0.02    0.24
  179OF                CONDUIT      7.18     0  12:22      0.18    0.01    0.41
  17OF                 CONDUIT     16.61     0  12:31      1.62    0.02    0.10
  183OF                CONDUIT     18.83     0  12:16      1.05    0.02    0.26
  187OF                CONDUIT     63.00     0  13:04      2.41    0.11    0.25
  18OF                 CONDUIT      3.65     0  12:32      0.84    0.02    0.09
  191OF                CONDUIT     14.65     0  12:33      1.22    0.03    0.12
  19OF                 CONDUIT      0.00     0  00:00      0.00    0.00    0.06
  200                  CONDUIT      0.13     0  12:36      1.98    0.03    0.10
  200OF                CONDUIT     13.11     0  12:35      1.30    0.01    0.54
  201OF                CONDUIT      4.49     0  12:46      0.24    0.02    0.18
  205OF                CONDUIT     10.20     0  12:22      0.18    0.01    0.53
  209OFA               CONDUIT     18.79     0  12:21      0.15    0.01    0.90
  229OF                CONDUIT     15.76     0  13:46      0.68    0.01    0.11
  229OFB               CONDUIT      0.16     0  13:46      0.56    0.13    0.40
  232OF                CONDUIT      8.89     0  12:42      0.29    0.04    0.39
  244OF                CONDUIT      6.74     0  12:15      0.12    0.00    0.52
  257OF                CONDUIT      6.74     0  12:15      0.12    0.00    0.52
  25OF                 CONDUIT      0.00     0  00:00      0.00    0.00    0.02
  2601OF               CONDUIT     52.43     0  13:02      1.43    0.20    0.35
  260OF                CONDUIT     49.34     0  13:04      1.39    0.15    0.34
  267OF                CONDUIT     12.56     0  12:15      1.63    0.01    0.08
  269OF                CONDUIT     13.36     0  13:23      0.11    0.00    0.53
  276OF                CONDUIT      0.29     0  12:40      0.19    0.00    0.22
  281OF                CONDUIT     49.82     0  13:01      1.07    0.20    0.43
  2851OF               CONDUIT      0.03     0  00:50      0.00    0.00    0.02
  285OF                CONDUIT      0.02     0  00:50      0.00    0.00    0.00
  297OF                CONDUIT      1.25     0  13:44      0.06    0.00    0.26
  306OF                CONDUIT     38.37     0  12:31      1.35    0.03    0.30
  3084                 CONDUIT      0.00     0  07:36      0.21    0.00    0.50
  3091                 CONDUIT      0.20     0  12:31      0.40    0.00    0.51
  31OF                 CONDUIT      6.42     0  12:15      0.32    0.00    0.29
  3231OF               CONDUIT      0.03     0  00:50      0.00    0.00    0.20
  323OF                CONDUIT     38.41     0  12:31      0.77    0.06    0.47
  325OF                CONDUIT     21.85     0  13:04      1.20    0.02    0.18
  3289                 CONDUIT     22.74     0  13:04      6.95    1.18    0.54
  3293                 CONDUIT      0.89     0  13:04      1.97    0.01    0.13
[...]
  3231OF                  1.00   0.01  0.46  0.00  0.52  0.01  0.00  0.00  0.94  0.00
  323OF                   1.00   0.01  0.25  0.00  0.73  0.00  0.00  0.00  0.17  0.00
  325OF                   2.56   0.00  0.00  0.00  0.99  0.00  0.00  0.00  0.80  0.00
  3289                    1.00   0.00  0.00  0.00  0.97  0.02  0.00  0.00  0.17  0.00
  3293                    3.60   0.00  0.00  0.00  0.98  0.02  0.00  0.00  0.80  0.00
  32OF                    1.04   0.28  0.02  0.00  0.70  0.00  0.00  0.00  0.03  0.00
  3339                    1.00   0.00  0.09  0.00  0.91  0.00  0.00  0.00  0.18  0.00
  3349                    1.81   0.00  0.00  0.00  1.00  0.00  0.00  0.00  1.00  0.00
  3355                    1.00   0.00  0.00  0.00  1.00  0.00  0.00  0.00  0.00  0.00
  3423                    1.00   0.00  0.00  0.00  1.00  0.00  0.00  0.00  0.00  0.00
  3424                    1.00   0.00  0.00  0.00  1.00  0.00  0.00  0.00  1.00  0.00
  348OF                  20.27   0.00  0.00  0.00  0.99  0.01  0.00  0.00  0.99  0.00
  3493                    1.00   0.00  0.00  0.00  0.70  0.30  0.00  0.00  0.92  0.00
  3510                    1.00   0.05  0.00  0.00  0.95  0.00  0.00  0.00  0.61  0.00
  3511                    1.00   0.10  0.04  0.00  0.81  0.05  0.00  0.00  0.63  0.00
  351OF                   7.29   0.00  0.33  0.00  0.67  0.00  0.00  0.00  0.85  0.00
  3521                    1.00   0.01  0.25  0.00  0.73  0.00  0.00  0.00  0.18  0.00
  3527                    1.00   0.00  0.03  0.00  0.97  0.00  0.00  0.00  0.99  0.00
  3629                    1.00   0.00  0.00  0.00  1.00  0.00  0.00  0.00  1.00  0.00
  3656                    1.00   0.16  0.17  0.00  0.67  0.00  0.00  0.00  0.73  0.00
  3682                    1.00   0.01  0.20  0.00  0.79  0.00  0.00  0.00  0.09  0.00
  3690                    1.00   0.01  0.16  0.00  0.83  0.00  0.00  0.00  0.85  0.00
  371OF                   1.47   0.00  0.05  0.00  0.95  0.00  0.00  0.00  0.88  0.00
  3843                    1.00   0.00  0.00  0.00  1.00  0.00  0.00  0.00  0.11  0.00
  384OF                   1.12   0.00  0.33  0.00  0.67  0.00  0.00  0.00  0.85  0.00
  3860                    6.38   0.00  0.00  0.00  0.14  0.86  0.00  0.00  0.28  0.00
  3873                    1.00   0.00  0.00  0.00  0.96  0.04  0.00  0.00  0.96  0.00
  387OF                   1.71   0.00  0.05  0.00  0.95  0.00  0.00  0.00  0.35  0.00
  4030                    1.86   0.23  0.04  0.00  0.60  0.13  0.00  0.00  0.61  0.00
  4043                    1.00   0.06  0.16  0.00  0.79  0.00  0.00  0.00  0.73  0.00
  407OF                   1.00   0.00  0.03  0.00  0.97  0.00  0.00  0.00  0.87  0.00
  4103                    1.00   0.00  0.00  0.00  0.62  0.38  0.00  0.00  0.71  0.00
  4117                    1.00   0.22  0.78  0.00  0.00  0.00  0.00  0.00  0.00  0.00
  4130                    1.10   0.00  1.00  0.00  0.00  0.00  0.00  0.00  0.00  0.00
  4155                    1.00   0.10  0.27  0.00  0.63  0.00  0.00  0.00  0.73  0.00
  4195                    4.35   0.30  0.02  0.00  0.33  0.35  0.00  0.00  0.53  0.00
  4202                    1.00   0.14  0.10  0.00  0.62  0.14  0.00  0.00  0.59  0.00
  4203                    1.10   0.19  0.17  0.00  0.64  0.00  0.00  0.00  0.29  0.00
  421OF                   1.00   0.26  0.00  0.00  0.72  0.02  0.00  0.00  0.00  0.00
  4220                    2.37   0.00  0.00  0.00  1.00  0.00  0.00  0.00  0.98  0.00
  4232                    2.06   0.16  0.03  0.00  0.81  0.00  0.00  0.00  0.14  0.00
  4OF                     1.00   0.42  0.04  0.00  0.54  0.00  0.00  0.00  0.58  0.00
  5002                    1.00   0.01  0.00  0.00  0.90  0.09  0.00  0.00  0.19  0.00
  5003                    1.00   0.19  0.14  0.00  0.64  0.02  0.00  0.00  0.00  0.79
  77OF                    2.66   0.30  0.02  0.00  0.67  0.01  0.00  0.00  0.48  0.00
  7OF                     1.00   0.00  0.02  0.00  0.98  0.00  0.00  0.00  1.00  0.00
  879OF                   1.00   0.33  0.06  0.00  0.60  0.00  0.00  0.00  0.70  0.00
  882OF                   1.00   0.00  0.01  0.00  0.99  0.00  0.00  0.00  0.76  0.00
  893OF                   1.00   0.00  0.38  0.00  0.62  0.00  0.00  0.00  0.88  0.00
  8941OF                  1.00   0.40  0.01  0.00  0.60  0.00  0.00  0.00  0.00  0.00
  894OF                   3.05   0.34  0.06  0.00  0.51  0.10  0.00  0.00  0.52  0.00
  9561OF                  1.00   0.00  0.00  0.00  1.00  0.00  0.00  0.00  0.00  0.00
  9562OF                  1.00   0.00  0.00  0.00  1.00  0.00  0.00  0.00  0.00  0.00
  956OF                   1.00   0.00  0.00  0.00  1.00  0.00  0.00  0.00  0.74  0.00
  95OF                    1.00   0.00  0.00  0.00  1.00  0.00  0.00  0.00  0.92  0.00
  974OF                   1.00   0.00  0.00  0.00  1.00  0.00  0.00  0.00  0.72  0.00
  982OF                   1.00   0.00  0.09  0.00  0.91  0.00  0.00  0.00  0.18  0.00
  989OF                   1.04   0.00  0.00  0.00  1.00  0.00  0.00  0.00  0.97  0.00
  CDT-101                 1.00   0.00  0.00  0.00  1.00  0.00  0.00  0.00  0.77  0.00
  CDT-103                 1.00   0.00  0.00  0.00  1.00  0.00  0.00  0.00  0.89  0.00
  CDT-105                 1.00   0.00  0.00  0.00  1.00  0.00  0.00  0.00  0.00  0.00
  CDT-107                 1.00   0.00  0.00  0.00  0.14  0.86  0.00  0.00  0.02  0.00
  CDT-109                 1.00   0.00  0.00  0.00  0.03  0.97  0.00  0.00  0.69  0.00
  CDT-11                  1.00   0.11  0.00  0.00  0.89  0.00  0.00  0.00  0.86  0.00
  CDT-111                 1.00   0.00  0.15  0.00  0.85  0.00  0.00  0.00  0.85  0.00
  CDT-113                 1.00   0.00  0.00  0.00  1.00  0.00  0.00  0.00  0.00  0.00
  CDT-115                 1.00   0.00  0.00  0.00  1.00  0.00  0.00  0.00  1.00  0.00
  CDT-117                 1.00   0.00  0.00  0.00  0.99  0.01  0.00  0.00  0.98  0.00
  CDT-119                 1.00   0.00  0.00  0.00  1.00  0.00  0.00  0.00  0.00  0.43
  CDT-121                 1.00   0.00  0.00  0.00  0.07  0.93  0.00  0.00  0.65  0.00
  CDT-123                 1.00   0.00  0.00  0.00  0.08  0.92  0.00  0.00  1.00  0.00
  CDT-125                 1.00   0.00  0.00  0.00  0.00  1.00  0.00  0.00  0.00  0.00
  CDT-127                 1.00   0.00  0.00  0.00  0.98  0.02  0.00  0.00  0.98  0.00
  CDT-129                 1.00   0.00  0.15  0.00  0.85  0.00  0.00  0.00  0.85  0.00
  CDT-13                  1.00   0.12  0.00  0.00  0.40  0.48  0.00  0.00  0.00  0.00
  CDT-131                 1.00   0.00  0.16  0.00  0.84  0.00  0.00  0.00  0.84  0.00
  CDT-133                 1.00   0.00  0.00  0.00  0.00  1.00  0.00  0.00  0.00  0.00
  CDT-135                 1.00   0.00  0.00  0.00  0.89  0.11  0.00  0.00  0.95  0.00
  CDT-137                 1.00   0.00  0.00  0.00  1.00  0.00  0.00  0.00  0.05  0.00
  CDT-141                 1.00   0.00  0.00  0.00  1.00  0.00  0.00  0.00  0.12  0.00
  CDT-143                 1.00   0.00  0.00  0.00  1.00  0.00  0.00  0.00  0.15  0.00
  CDT-147                 1.00   0.00  0.00  0.00  1.00  0.00  0.00  0.00  0.18  0.00
  CDT-149                 1.00   0.00  0.00  0.00  1.00  0.00  0.00  0.00  0.27  0.00
  CDT-15                  1.00   0.00  0.13  0.00  0.85  0.02  0.00  0.00  0.88  0.00
  CDT-151                 1.00   0.00  0.00  0.00  0.99  0.00  0.00  0.00  0.19  0.00
  CDT-153                 1.00   0.00  0.00  0.00  0.92  0.08  0.00  0.00  0.19  0.00
  CDT-155                 1.00   0.00  0.00  0.00  0.94  0.06  0.00  0.00  0.13  0.00
  CDT-157                 1.00   0.00  0.00  0.00  1.00  0.00  0.00  0.00  0.10  0.00
  CDT-159                 1.00   0.00  0.00  0.00  0.14  0.86  0.00  0.00  0.18  0.00
  CDT-161                 1.89   0.00  0.00  0.00  0.00  1.00  0.00  0.00  0.25  0.00
  CDT-163                 1.00   0.00  0.00  0.00  1.00  0.00  0.00  0.00  0.94  0.00
  CDT-165                 1.00   0.00  0.00  0.00  0.95  0.05  0.00  0.00  0.80  0.00
  CDT-167                 1.00   0.03  0.00  0.00  0.93  0.03  0.00  0.00  0.00  0.00
  CDT-169                 1.00   0.14  0.00  0.00  0.81  0.04  0.00  0.00  0.74  0.00
  CDT-17                  1.00   0.00  0.00  0.00  0.24  0.76  0.00  0.00  0.99  0.00
  CDT-171                 1.00   0.19  0.00  0.00  0.78  0.04  0.00  0.00  0.00  0.00
  CDT-175                 1.00   0.23  0.00  0.00  0.77  0.00  0.00  0.00  0.00  0.00
  CDT-19                  1.00   0.00  0.00  0.00  0.00  1.00  0.00  0.00  0.61  0.00
  CDT-21                  1.00   0.00  0.00  0.00  0.75  0.25  0.00  0.00  0.93  0.00
  CDT-23                  1.00   0.00  0.00  0.00  0.95  0.05  0.00  0.00  0.80  0.00
  CDT-25                  1.00   0.00  0.00  0.00  0.51  0.49  0.00  0.00  1.00  0.00
  CDT-27                  1.00   0.00  0.00  0.00  0.00  1.00  0.00  0.00  1.00  0.00
  CDT-29                  1.00   0.00  0.00  0.00  0.83  0.17  0.00  0.00  0.95  0.00
  CDT-31                  1.00   0.00  0.00  0.00  0.17  0.83  0.00  0.00  0.01  0.00
  CDT-33                  1.00   0.00  0.00  0.00  0.00  1.00  0.00  0.00  1.00  0.00
  CDT-35                  1.00   0.00  0.00  0.00  0.00  1.00  0.00  0.00  1.00  0.00
  CDT-37                  1.00   0.00  0.00  0.00  0.16  0.84  0.00  0.00  1.00  0.00
  CDT-39                  1.00   0.00  0.00  0.00  1.00  0.00  0.00  0.00  0.87  0.00
  CDT-41                  1.00   0.00  0.16  0.00  0.84  0.00  0.00  0.00  0.00  0.84
  CDT-43                  1.00   0.00  0.00  0.00  1.00  0.00  0.00  0.00  0.38  0.00
  CDT-45                  1.00   0.00  0.00  0.00  0.01  0.99  0.00  0.00  1.00  0.00
  CDT-47                  1.00   0.00  0.00  0.00  0.30  0.70  0.00  0.00  0.82  0.00
  CDT-49                  1.00   0.00  0.00  0.00  1.00  0.00  0.00  0.00  0.81  0.00
  CDT-51                  1.00   0.14  0.01  0.00  0.85  0.00  0.00  0.00  0.85  0.00
  CDT-53                  1.00   0.00  0.14  0.00  0.13  0.73  0.00  0.00  0.13  0.00
  CDT-55                  1.00   0.00  0.00  0.00  0.32  0.68  0.00  0.00  1.00  0.00
  CDT-57                  1.00   0.00  0.00  0.00  1.00  0.00  0.00  0.00  0.92  0.00
  CDT-59                  1.00   0.00  0.00  0.00  1.00  0.00  0.00  0.00  0.87  0.00
  CDT-61                  1.00   0.00  0.00  0.00  0.00  1.00  0.00  0.00  1.00  0.00
  CDT-63                  1.00   0.00  0.00  0.00  0.00  1.00  0.00  0.00  1.00  0.00
  CDT-65                  1.00   0.00  0.00  0.00  1.00  0.00  0.00  0.00  1.00  0.00
  CDT-67                  1.00   0.00  0.00  0.00  0.00  1.00  0.00  0.00  0.34  0.00
  CDT-69                  1.00   0.00  0.00  0.00  0.29  0.71  0.00  0.00  1.00  0.00
  CDT-71                  1.00   0.00  0.00  0.00  0.99  0.01  0.00  0.00  1.00  0.00
  CDT-73                  1.00   0.00  0.00  0.00  0.82  0.18  0.00  0.00  0.40  0.00
  CDT-75                  1.00   0.00  0.00  0.00  0.01  0.99  0.00  0.00  0.00  0.00
  CDT-77                  1.00   0.00  0.00  0.00  0.85  0.15  0.00  0.00  0.17  0.00
  CDT-79                  1.00   0.00  0.00  0.00  0.99  0.01  0.00  0.00  1.00  0.00
  CDT-81                  1.00   0.00  0.00  0.00  1.00  0.00  0.00  0.00  1.00  0.00
  CDT-83                  1.00   0.00  0.00  0.00  1.00  0.00  0.00  0.00  1.00  0.00
  CDT-85                  1.00   0.00  0.00  0.00  1.00  0.00  0.00  0.00  1.00  0.00
  CDT-87                  1.00   0.00  0.00  0.00  0.85  0.15  0.00  0.00  0.68  0.00
  CDT-89                  1.00   0.00  0.00  0.00  1.00  0.00  0.00  0.00  1.00  0.00
  CDT-91                  1.00   0.00  0.00  0.00  0.00  1.00  0.00  0.00  0.00  0.00
  CDT-93                  1.00   0.00  0.00  0.00  0.18  0.82  0.00  0.00  0.96  0.00
  CDT-95                  1.00   0.00  0.00  0.00  0.83  0.17  0.00  0.00  1.00  0.00
  CDT-97                  1.00   0.00  0.00  0.00  1.00  0.00  0.00  0.00  1.00  0.00
  CDT-99                  1.00   0.00  0.00  0.00  1.00  0.00  0.00  0.00  0.93  0.00
  R255                    2.35   0.19  0.26  0.00  0.56  0.00  0.00  0.00  0.73  0.00
  R26                     1.00   0.00  0.38  0.00  0.62  0.00  0.00  0.00  0.51  0.00
  R74                     1.49   0.08  0.31  0.00  0.59  0.02  0.00  0.00  0.56  0.00
  R83                     1.00   0.03  0.41  0.00  0.56  0.00  0.00  0.00  0.56  0.00
  RINFLOW                 1.00   0.03  0.19  0.00  0.78  0.00  0.00  0.00  0.87  0.00
  SWALE                   1.00   1.00  0.00  0.00  0.00  0.00  0.00  0.00  0.00  0.00
  
  
  *************************
  Conduit Surcharge Summary
  *************************
  
  ----------------------------------------------------------------------------
                                                           Hours        Hours 
                         --------- Hours Full --------   Above Full   Capacity
  Conduit                Both Ends  Upstream  Dnstream   Normal Flow   Limited
  ----------------------------------------------------------------------------
  105OF                       0.01      0.01     14.98      0.01         0.01
  1114                        0.01      0.01      4.36      0.01         0.01
  1230                        0.01      0.01      1.33      0.01         0.01
  1284                        0.01      0.01     13.38      0.01         0.01
  1285                       13.38     13.38     14.94      0.01         0.01
  1288                        0.01      0.01     13.64      0.01         0.01
  1289                        0.01      0.01      0.86      0.01         0.01
  1290                        0.01      0.01     14.81      0.01         0.01
  1297                        0.01      0.01     15.60      0.01         0.01
  1298                        0.01      0.01     15.00      0.01         0.01
  1306                        0.01      0.01      0.60      0.01         0.01
  1308                        0.01      0.01      3.54      0.01         0.01
  1314                        0.01      0.01     15.71      0.01         0.01
  1328                        0.01      0.01      1.19      0.01         0.01
  136OF                       1.10      1.10     14.98      0.01         0.01
  140OF                       0.01      0.01      1.10      0.01         0.01
  144                         0.01      0.01     15.12      0.01         0.01
  144OF                       0.01      0.01     15.12      0.01         0.01
  158                         0.01      0.01      0.60      0.01         0.01
  158OF                       0.01      0.01     14.98      0.01         0.01
  163OF                       0.01      0.01     15.12      0.01         0.01
  166OF                       0.01      0.01      2.13      0.01         0.01
  200OF                       0.01      0.01     13.20      0.01         0.01
  205OF                       0.01      0.01     14.63      0.01         0.01
  209OFA                      0.01      0.01     13.76      0.01         0.01
  244OF                       0.01      0.01     14.63      0.01         0.01
  257OF                       0.01      0.01     14.72      0.01         0.01
  269OF                       0.01      0.01     13.76      0.01         0.01
  3084                        0.01      0.01     13.81      0.01         0.01
  3091                        0.01      0.01     13.81      0.01         0.01
  3289                        0.01      0.01      0.86      0.65         0.01
  348OF                       0.01      0.01     14.03      0.01         0.01
  351OF                       0.01      0.01     14.03      0.01         0.01
  3521                        0.01      0.01     15.00      0.01         0.01
  3527                        0.01      0.01     15.82      0.01         0.01
  3682                        0.01      0.01     15.91      0.01         0.01
  3873                        0.01      0.01     16.53      0.01         0.01
  4043                        0.01      0.01     14.94      0.01         0.01
  407OF                       0.01      0.01     14.69      0.01         0.01
  4155                        0.01      0.01     14.94      0.01         0.01
  4232                        0.01      0.01     15.12      0.01         0.01
  989OF                       0.01      0.01     14.03      0.01         0.01
  CDT-101                     1.71      1.71      2.05      0.01         0.01
  CDT-103                     2.05      2.05      3.33      0.91         0.91
  CDT-105                     1.95      3.33      1.95      4.13         1.95
  CDT-107                     0.01      1.95      0.01      1.51         0.01
  CDT-111                     0.01      0.01      2.05      0.01         0.01
  CDT-137                    23.17     23.17     24.70      0.01         0.01
  CDT-141                    18.92     18.92     23.17      0.01         0.03
  CDT-143                    18.73     18.73     18.92      0.05         0.33
  CDT-147                    18.68     18.68     18.73      0.02         2.34
  CDT-149                    18.68     18.68     21.15      0.01         0.01
  CDT-151                    20.67     20.67     21.15      0.01         0.09
  CDT-153                    19.39     19.39     20.67      0.01         0.01
  CDT-155                     0.01      0.01     19.39      0.01         0.01
  CDT-157                     0.01      0.01     23.65      0.01         0.01
  CDT-21                      0.01      0.01      4.62      0.01         0.01
  CDT-23                      3.73      3.73     25.49      0.01         0.01
  CDT-29                      0.01      0.01      9.03      0.01         0.01
  CDT-31                      3.53      3.53      3.73      0.24         0.01
  CDT-37                      0.01      0.01      7.24      0.01         0.01
  CDT-39                      3.27      3.27      3.53      0.01         0.01
  CDT-45                      0.01      0.01      4.30      0.01         0.01
  CDT-47                      4.30      4.30      5.96      3.86         3.85
  CDT-49                      4.60      4.77      4.60      3.83         3.08
  CDT-55                      0.01      0.01      1.50      0.01         0.01
  CDT-57                      1.50      1.50      2.36      0.88         0.88
  CDT-59                      0.01      2.36      0.01      2.89         0.01
  CDT-71                      0.01      0.01     11.88      0.01         0.01
  CDT-73                     11.88     11.88     13.60      1.67         1.66
  CDT-75                      0.01     13.60      0.01     13.32         0.01
  CDT-79                      0.01      0.01     11.88      0.01         0.01
  CDT-97                      0.01      0.01      1.20      0.01         0.01
  CDT-99                      1.20      1.20      1.71      0.01         0.01
  
  
  ***************
  Pumping Summary
  ***************
  
  ---------------------------------------------------------------------------------------------------------
                                                  Min       Avg       Max     Total     Power    % Time Off
                        Percent   Number of      Flow      Flow      Flow    Volume     Usage    Pump Curve
  Pump                 Utilized   Start-Ups       CFS       CFS       CFS  10^6 gal     Kw-hr    Low   High
  ---------------------------------------------------------------------------------------------------------
  PUMP-13                 48.09          69      0.00      2.91      3.32     0.975     88.24    0.0    0.0
  PUMP-15                  3.23         155      0.00     11.44     12.65     0.268     33.82    0.0    0.0
  PUMP-17                  5.18         218      0.00      2.99      3.50     0.104      2.08    0.0   93.3
  PUMP-19                 13.09         463      0.00      3.50      3.50     0.322     12.02    0.0  100.0
  PUMP1@1115-351           0.00           0      0.00      0.00      0.00     0.000      0.00    0.0    0.0
  

  Analysis begun on:  Tue Jun 23 21:35:04 2026
  Analysis ended on:  Tue Jun 23 21:35:05 2026
  Total elapsed time: 00:00:01