
  EPA STORM WATER MANAGEMENT MODEL - VERSION 5.2 (Build 5.2.4)
  ------------------------------------------------------------

  Demonstrates the fix for a v5.1.013 bug that ignored street sweeping when thesweeping period began with a 
  higher day of the year than the end of the period. Running this file, with a sweeping period of 
  October - June, now shows a Sweeping Removal of 50.2 lbs of TSS. 
  
  ****************
  Analysis Options
  ****************
  Flow Units ............... CFS
  Process Models:
    Rainfall/Runoff ........ YES
    RDII ................... NO
    Snowmelt ............... NO
    Groundwater ............ NO
    Flow Routing ........... NO
    Water Quality .......... YES
  Infiltration Method ...... HORTON
  Surcharge Method ......... EXTRAN
  Starting Date ............ 06/08/2019 00:00:00
  Ending Date .............. 06/20/2019 00:00:00
  Antecedent Dry Days ...... 0.0
  Report Time Step ......... 00:15:00
  Wet Time Step ............ 00:05:00
  Dry Time Step ............ 01:00:00
  
  
  **************************        Volume         Depth
  Runoff Quantity Continuity     acre-feet        inches
  **************************     ---------       -------
  Total Precipitation ......         0.250         3.000
  Evaporation Loss .........         0.000         0.000
  Infiltration Loss ........         0.134         1.609
  Surface Runoff ...........         0.116         1.390
  Final Storage ............         0.001         0.009
  Continuity Error (%) .....        -0.297
  
  
  **************************           TSS
  Runoff Quality Continuity            lbs
  **************************    ----------
  Initial Buildup ..........         0.000
  Surface Buildup ..........       118.611
  Wet Deposition ...........         0.000
  Sweeping Removal .........        50.208
  Infiltration Loss ........         0.000
  BMP Removal ..............         0.000
  Surface Runoff ...........         0.000
  Remaining Buildup ........        68.403
  Continuity Error (%) .....         0.000
  
  
  ***************************
  Subcatchment Runoff Summary
  ***************************
  
  ------------------------------------------------------------------------------------------------------------------------------
                            Total      Total      Total      Total     Imperv       Perv      Total       Total     Peak  Runoff
                           Precip      Runon       Evap      Infil     Runoff     Runoff     Runoff      Runoff   Runoff   Coeff
  Subcatchment                 in         in         in         in         in         in         in    10^6 gal      CFS
  ------------------------------------------------------------------------------------------------------------------------------
  1                          3.00       0.00       0.00       1.61       0.75       0.64       1.39        0.04     0.63   0.463
  
  
  ****************************
  Subcatchment Washoff Summary
  ****************************
  
  ----------------------------------
                                 TSS
  Subcatchment                   lbs
  ----------------------------------
  1                            0.000
  ----------------------------------
  System                       0.000
  

  Analysis begun on:  Tue Jun 23 21:35:05 2026
  Analysis ended on:  Tue Jun 23 21:35:05 2026
  Total elapsed time: < 1 sec