
  EPA STORM WATER MANAGEMENT MODEL - VERSION 5.2 (Build 5.2.4)
  ------------------------------------------------------------

  
  ERROR 235: invalid infiltration parameters at line 75 of [INFIL] section:
  Shed1            3          0.5        4         

  
  ERROR 235: invalid infiltration parameters at line 76 of [INFIL] section:
  Shed2            3          0.5        4         

  
  ERROR 235: invalid infiltration parameters at line 77 of [INFIL] section:
  3                3          0.5        4         

  
  ERROR 235: invalid infiltration parameters at line 78 of [INFIL] section:
  4                3          0.5        4         


  Analysis begun on:  Tue Jun 23 21:35:06 2026
  Analysis ended on:  Tue Jun 23 21:35:06 2026
  Total elapsed time: < 1 sec