
  EPA STORM WATER MANAGEMENT MODEL - VERSION 5.2 (Build 5.2.4)
  ------------------------------------------------------------

  WARNING 04: minimum elevation drop used for Conduit MH118A_MH118
  WARNING 04: minimum elevation drop used for Conduit MH135A_MH135W
  WARNING 04: minimum elevation drop used for Conduit MH13P_MH13P2
  
  ****************
  Analysis Options
  ****************
  Flow Units ............... MGD
  Process Models:
    Rainfall/Runoff ........ YES
    RDII ................... NO
    Snowmelt ............... NO
    Groundwater ............ YES
    Flow Routing ........... YES
    Ponding Allowed ........ YES
    Water Quality .......... NO
  Infiltration Method ...... HORTON
  Flow Routing Method ...... DYNWAVE
  Surcharge Method ......... EXTRAN
  Starting Date ............ 06/25/2006 00:00:00
  Ending Date .............. 06/28/2006 14:00:00
  Antecedent Dry Days ...... 0.0
  Report Time Step ......... 00:15:00
  Wet Time Step ............ 00:05:00
  Dry Time Step ............ 00:15:00
  Routing Time Step ........ 20.00 sec
  Variable Time Step ....... YES
  Maximum Trials ........... 8
  Number of Threads ........ 1
  Head Tolerance ........... 0.005000 ft
  
  
  **************************        Volume         Depth
  Runoff Quantity Continuity     acre-feet        inches
  **************************     ---------       -------
  Total Precipitation ......      3445.170         7.575
  Evaporation Loss .........         0.000         0.000
  Infiltration Loss ........      3315.277         7.289
  Surface Runoff ...........       130.221         0.286
  Final Storage ............         0.555         0.001
  Continuity Error (%) .....        -0.026
  
  
  **************************        Volume         Depth
  Groundwater Continuity         acre-feet        inches
  **************************     ---------       -------
  Initial Storage ..........       181.339         9.000
  Infiltration .............       186.819         9.272
  Upper Zone ET ............         0.000         0.000
  Lower Zone ET ............         0.000         0.000
  Deep Percolation .........       211.163        10.480
  Groundwater Flow .........         0.000         0.000
  Final Storage ............       156.837         7.784
  Continuity Error (%) .....         0.043
  
  
  **************************        Volume        Volume
  Flow Routing Continuity        acre-feet      10^6 gal
  **************************     ---------     ---------
  Dry Weather Inflow .......         1.356         0.442
  Wet Weather Inflow .......       130.199        42.427
  Groundwater Inflow .......         0.000         0.000
  RDII Inflow ..............         0.000         0.000
  External Inflow ..........         0.000         0.000
  External Outflow .........       134.001        43.666
  Flooding Loss ............         1.290         0.420
  Evaporation Loss .........         0.000         0.000
  Exfiltration Loss ........         0.000         0.000
  Initial Stored Volume ....         0.000         0.000
  Final Stored Volume ......         0.240         0.078
  Continuity Error (%) .....        -3.022
  
  
  *************************
  Highest Continuity Errors
  *************************
  Node MH92B (81.71%)
  Node WWTP_WET_WELL (-4.82%)
  
  
  ***************************
  Time-Step Critical Elements
  ***************************
  Link MH118A_MH118 (48.14%)
  Node WWTP_WET_WELL (19.62%)
  Link MH36B_MH36W (8.88%)
  Link MH62_MH62A (5.95%)
  Node PS-ARCH (1.61%)
  
  
  ********************************
  Highest Flow Instability Indexes
  ********************************
  Link MH62A_MH62B (54)
  Link MH62_MH62A (53)
  Link MH-WWTP_MH156 (52)
  Link MH62C_MH63A (48)
  Link MH64_MH64C (47)
  
  
  *********************************
  Most Frequent Nonconverging Nodes
  *********************************
  Node MH10R (21.85%)
  Node MH117R (21.85%)
  Node MH117R2 (21.85%)
  Node MH122R (21.85%)
  Node MH135R (21.85%)
  
  
  *************************
  Routing Time Step Summary
  *************************
  Minimum Time Step           :     0.50 sec
  Average Time Step           :     4.52 sec
  Maximum Time Step           :    20.00 sec
  % of Time in Steady State   :     0.00
  Average Iterations per Step :     4.99
  % of Steps Not Converging   :    21.85
  Time Step Frequencies       :
     20.000 -  9.564 sec      :    10.51 %
      9.564 -  4.573 sec      :    12.93 %
      4.573 -  2.187 sec      :    67.09 %
      2.187 -  1.046 sec      :     7.32 %
      1.046 -  0.500 sec      :     2.15 %
  
  
  ***************************
  Subcatchment Runoff Summary
  ***************************
  
  ------------------------------------------------------------------------------------------------------------------------------
                            Total      Total      Total      Total     Imperv       Perv      Total       Total     Peak  Runoff
                           Precip      Runon       Evap      Infil     Runoff     Runoff     Runoff      Runoff   Runoff   Coeff
  Subcatchment                 in         in         in         in         in         in         in    10^6 gal      MGD
  ------------------------------------------------------------------------------------------------------------------------------
  A_1                        9.06       0.00       0.00       8.81       0.23       0.03       0.26        2.76    19.38   0.028
  A_2                        9.33       0.00       0.00       9.27       0.06       0.00       0.06        0.36     1.66   0.006
  A_3                        9.93       0.00       0.00       8.37       1.12       0.44       1.56        1.69    15.84   0.157
  A_6                        9.89       0.00       0.00       8.77       0.49       0.62       1.12        2.79    27.63   0.113
  A_7                        9.89       0.00       0.00       8.23       0.87       0.80       1.67        0.43     3.84   0.169
  B_1                        6.47       0.00       0.00       6.31       0.16       0.00       0.17        0.66     5.40   0.026
  B_2                        6.59       0.00       0.00       6.33       0.25       0.01       0.26        0.04     0.43   0.039
  B_3                        6.57       0.00       0.00       6.24       0.33       0.00       0.33        2.97    14.80   0.050
  B_4                        7.92       0.00       0.00       7.62       0.30       0.01       0.30        2.66    13.39   0.039
  B_5                        8.50       0.00       0.00       8.24       0.11       0.17       0.27        0.02     0.51   0.032
  B_6                        8.50       0.00       0.00       8.27       0.11       0.13       0.24        0.02     0.58   0.028
  B_7                        7.44       0.00       0.00       7.35       0.09       0.00       0.09        1.53     5.84   0.013
  B_8                        6.72       0.00       0.00       6.62       0.08       0.01       0.10        0.01     0.13   0.015
  DC_1                       6.37       0.00       0.00       6.21       0.16       0.00       0.16        0.91     3.53   0.025
  DC_2                       6.46       0.00       0.00       6.38       0.08       0.00       0.08        0.16     0.90   0.013
  DC_3                       6.56       0.00       0.00       6.39       0.16       0.00       0.16        0.26     1.28   0.025
  DC_4                       6.52       0.00       0.00       6.36       0.16       0.00       0.17        0.08     0.54   0.025
  DC_5                       6.47       0.00       0.00       6.38       0.08       0.00       0.08        1.12    10.06   0.013
  DC_6                       6.65       0.00       0.00       6.48       0.17       0.00       0.17        0.18     1.47   0.026
  DC_7                       6.23       0.00       0.00       6.07       0.16       0.00       0.16        1.06     3.65   0.025
  DC_8                       6.41       0.00       0.00       6.16       0.24       0.00       0.24        1.55    10.83   0.038
  DC_9                       6.37       0.00       0.00       6.29       0.08       0.00       0.08        0.21     0.81   0.012
  J_1                        8.82       0.00       0.00       8.52       0.22       0.09       0.31        3.76    39.61   0.035
  J_2                        9.94       0.00       0.00       9.45       0.12       0.37       0.50        1.36    20.96   0.050
  J_3                       10.32       0.00       0.00       9.60       0.13       0.60       0.73        0.75    11.17   0.071
  J_4                        7.68       0.00       0.00       6.78       0.87       0.04       0.91        1.87    15.46   0.118
  J_5                        8.72       0.00       0.00       8.55       0.11       0.06       0.17        0.64     8.56   0.019
  J_6                        8.81       0.00       0.00       7.14       1.55       0.13       1.68        1.81    11.26   0.190
  T-O_1                      7.55       0.00       0.00       7.17       0.38       0.00       0.38        6.02    21.88   0.050
  T-O_2                      6.93       0.00       0.00       6.40       0.52       0.00       0.52        1.30     6.47   0.075
  T-O_3                      6.61       0.00       0.00       6.03       0.58       0.00       0.58        1.13     5.80   0.088
  T-O_4                      6.59       0.00       0.00       6.26       0.33       0.00       0.33        0.05     0.32   0.051
  T-O_5                      7.21       0.00       0.00       6.91       0.27       0.04       0.31        1.08    12.25   0.043
  T_1                        6.43       0.00       0.00       5.62       0.80       0.00       0.81        1.13     6.55   0.125
  T_3                        6.76       0.00       0.00       6.59       0.17       0.00       0.17        0.05     0.32   0.025
  T_4                        6.43       0.00       0.00       6.00       0.32       0.13       0.45        0.02     0.78   0.069
  
  
  *******************
  Groundwater Summary
  *******************
  
  -----------------------------------------------------------------------------------------------------
                                            Total    Total  Maximum  Average  Average    Final    Final
                          Total    Total    Lower  Lateral  Lateral    Upper    Water    Upper    Water
                          Infil     Evap  Seepage  Outflow  Outflow   Moist.    Table   Moist.    Table
  Subcatchment               in       in       in       in      MGD                ft                ft
  -----------------------------------------------------------------------------------------------------
  A_2                      9.27     0.00    10.48     0.00     0.00     0.29   876.49     0.30   876.24
  
  
  ******************
  Node Depth Summary
  ******************
  
  ---------------------------------------------------------------------------------
                                 Average  Maximum  Maximum  Time of Max    Reported
                                   Depth    Depth      HGL   Occurrence   Max Depth
  Node                 Type         Feet     Feet     Feet  days hr:min        Feet
  ---------------------------------------------------------------------------------
  MH-WWTP              JUNCTION    34.80    38.13   747.63     1  10:30       37.87
  MH1                  JUNCTION     0.09     1.52   875.62     0  16:33        1.51
  MH10                 JUNCTION     1.07    18.65   885.50     0  16:35       17.60
  MH100                JUNCTION     2.20    10.00   751.36     0  16:16        9.92
  MH100A               JUNCTION     2.25    10.06   751.36     0  16:16        9.95
  MH101A               JUNCTION     2.12    10.06   751.13     0  16:17        9.94
  MH103                JUNCTION     6.65   119.81   874.81     0  16:16      118.26
  MH104                JUNCTION     1.13    20.52   768.62     0  16:18       19.62
  MH105                JUNCTION     2.00    12.25   753.37     0  16:19       11.95
  MH107A               JUNCTION     1.85    10.14   750.99     0  16:18       10.00
  MH108A               JUNCTION     2.43    10.90   750.40     0  16:18       10.74
  MH109                JUNCTION     2.33    10.58   749.81     0  16:19       10.41
  MH10A                JUNCTION     0.03     0.54   868.44     0  16:35        0.52
  MH10W                JUNCTION     0.07     0.79   868.44     0  16:35        0.77
  MH11                 JUNCTION     1.75    32.86   897.61     2  05:04       29.57
  MH110                JUNCTION     2.67    10.43   748.58     0  16:19       10.25
  MH111                JUNCTION     2.49     9.70   747.40     0  16:20        9.50
  MH112                JUNCTION     2.68     9.62   746.72     0  16:20        9.46
  MH113                JUNCTION     2.75     9.31   745.81     0  16:21        9.17
  MH115                JUNCTION     3.13     9.15   744.51     0  16:21        9.06
  MH116                JUNCTION     3.42     8.70   743.13     0  16:21        8.61
  MH117                JUNCTION     3.82     7.93   741.28     0  16:22        7.91
  MH117D               JUNCTION     1.16     1.71   735.06     0  16:22        1.71
  MH117W               JUNCTION     0.09     0.67   738.62     0  16:22        0.66
  MH117W2              JUNCTION     0.00     0.00   737.95     0  00:00        0.00
  MH118                JUNCTION     1.29     1.93   733.36     1  05:15        1.93
  MH118A               JUNCTION     1.31     1.95   733.38     1  05:15        1.95
  MH119                JUNCTION     1.29     1.93   732.16     1  05:16        1.93
  MH12                 JUNCTION     2.24    50.17   914.56     2  05:02       47.94
  MH120                JUNCTION     1.27     1.84   731.17     1  05:17        1.84
  MH121                JUNCTION     0.81     1.25   729.23     2  07:06        1.24
  MH122                JUNCTION     0.67     5.22   740.26     2  07:06        4.40
  MH122A               JUNCTION     0.51    14.61   754.01     2  07:06       11.60
  MH122B               JUNCTION     0.69    32.54   772.84     2  07:02       28.85
  MH122W               JUNCTION     0.12     2.16   740.66     2  07:06        1.30
  MH123                JUNCTION     0.63     5.38   740.12     1  10:18        3.87
  MH124                JUNCTION     0.56     6.75   740.99     1  10:19        2.94
  MH125                JUNCTION     0.49     3.86   737.60     1  10:21        1.86
  MH126                JUNCTION     0.22     0.57   733.77     2  07:07        0.55
  MH127                JUNCTION     0.22     0.57   731.52     2  07:08        0.56
  MH128                JUNCTION     1.27     1.95   728.27     2  07:07        1.95
  MH129                JUNCTION     1.20     1.88   727.45     1  05:19        1.87
  MH13                 JUNCTION     2.78    21.25   907.25     2  07:48       21.18
  MH130                JUNCTION     1.44     2.24   726.91     1  05:19        2.23
  MH131                JUNCTION     1.33     2.08   725.88     1  05:20        2.07
  MH132                JUNCTION     1.36     2.12   725.02     1  10:52        2.11
  MH133                JUNCTION     1.27     2.40   724.07     1  10:53        2.24
  MH134                JUNCTION     1.16     2.70   723.80     1  10:53        2.52
  MH135                JUNCTION     0.06     0.48   723.48     1  10:52        0.33
  MH135A               JUNCTION     0.10     0.34   732.34     1  10:45        0.34
  MH135B               JUNCTION     0.04     0.18   736.78     1  10:45        0.18
  MH135W               JUNCTION     0.01     0.10   732.10     1  10:45        0.10
  MH135WR              JUNCTION     0.00     0.00   731.00     0  00:00        0.00
  MH136                JUNCTION     1.73     3.51   723.48     1  10:54        3.35
  MH137                JUNCTION     1.71     3.40   723.12     1  10:54        3.25
  MH138                JUNCTION     1.71     3.24   722.44     1  10:52        3.12
  MH139                JUNCTION     1.69     3.06   721.74     1  10:50        2.97
  MH13P                JUNCTION    37.66    86.24   947.74     2  07:22       85.55
  MH13P2               JUNCTION    31.62    58.45   919.95     2  07:34       58.37
  MH14                 JUNCTION     2.78    20.82   905.32     2  07:53       20.60
  MH140                JUNCTION     1.69     2.98   721.36     1  10:49        2.93
  MH141                JUNCTION     1.68     2.90   720.77     1  10:47        2.88
  MH142                JUNCTION     1.67     2.87   720.33     1  10:45        2.86
  MH143                JUNCTION     1.65     2.83   720.08     1  10:45        2.83
  MH144                JUNCTION     1.67     2.83   719.85     1  10:45        2.83
  MH145                JUNCTION     1.66     2.79   719.57     1  10:45        2.79
  MH146                JUNCTION     1.69     2.78   719.39     1  10:45        2.78
  MH147                JUNCTION     1.56     2.51   718.52     1  10:46        2.51
  MH148                JUNCTION     1.52     2.43   718.27     1  10:46        2.42
  MH149                JUNCTION     1.43     2.32   718.05     1  10:46        2.32
  MH15                 JUNCTION     3.05    21.30   903.30     2  07:58       21.30
  MH150                JUNCTION     1.47     2.36   717.62     1  05:31        2.36
  MH151                JUNCTION     0.83     5.84   722.88     2  07:17        5.79
  MH152                JUNCTION     1.70    14.28   732.32     2  07:15       14.28
  MH153                JUNCTION     2.18    21.00   740.04     2  07:09       20.34
  MH154                JUNCTION     2.91    34.77   754.77     2  07:02       32.45
  MH155                JUNCTION     1.19     1.87   716.67     1  10:30        1.87
  MH155GC              JUNCTION     0.59     1.08   715.82     1  10:30        1.07
  MH156                JUNCTION     0.59     0.92   742.92     1  10:32        0.91
  MH16                 JUNCTION     3.30    21.87   901.37     0  17:46       21.86
  MH17                 JUNCTION     3.50    22.83   900.96     0  17:48       22.80
  MH18                 JUNCTION     3.66    23.77   900.45     0  17:49       23.73
  MH19                 JUNCTION     3.87    24.96   899.84     0  17:48       24.94
  MH1A                 JUNCTION     0.05     0.92   875.62     0  16:33        0.91
  MH2                  JUNCTION     0.28     6.00   878.00     2  06:48        4.50
  MH20                 JUNCTION     4.24    26.83   899.07     0  17:41       26.82
  MH200                JUNCTION     0.51     2.02   717.56     2  06:59        2.00
  MH200P               JUNCTION     4.13     8.74   730.74     2  07:01        8.64
  MH201                JUNCTION     1.09     5.17   720.17     2  07:00        5.17
  MH202                JUNCTION     0.42    10.12   726.34     2  07:00       10.11
  MH21                 JUNCTION     4.51    28.48   898.74     0  17:21       28.45
  MH22                 JUNCTION     4.86    30.75   898.70     0  17:17       30.72
  MH23                 JUNCTION     5.20    34.25   899.89     0  17:05       34.00
  MH24                 JUNCTION     5.61    41.67   904.67     0  16:53       40.66
  MH25                 JUNCTION     5.88    44.74   905.10     0  16:52       43.44
  MH26                 JUNCTION     5.60    46.24   905.62     0  16:49       45.62
  MH26A                JUNCTION     5.49    47.70   906.19     0  16:46       47.62
  MH27                 JUNCTION     5.89    54.44   910.18     0  16:35       52.36
  MH28                 JUNCTION     4.85    37.80   891.10     0  17:00       37.80
  MH29                 JUNCTION     3.90    29.58   880.44     0  17:16       29.57
  MH3                  JUNCTION     0.71    26.76   901.76     0  16:18       24.68
  MH30                 JUNCTION     3.11    23.77   871.99     0  17:25       23.69
  MH31                 JUNCTION     2.30    18.33   863.91     0  17:24       18.24
  MH32                 JUNCTION     1.87    14.53   856.11     0  17:16       14.53
  MH34                 JUNCTION     1.25    13.56   849.14     0  16:41       13.48
  MH35                 JUNCTION     1.07    14.60   848.03     0  16:36       13.90
  MH36                 JUNCTION     2.56    27.30   847.30     0  16:34       26.79
  MH36B                JUNCTION     1.72    54.01   877.83     0  16:17       49.62
  MH36W                JUNCTION     1.15    25.25   848.11     0  16:32       25.05
  MH37                 JUNCTION     2.33    25.12   844.07     0  16:39       24.66
  MH38                 JUNCTION     2.17    23.54   841.17     0  16:43       23.51
  MH39                 JUNCTION     1.62    35.06   848.48     0  16:28       35.04
  MH4                  JUNCTION     1.14    18.81   887.81     0  16:32       18.53
  MH40                 JUNCTION     3.28    36.91   844.91     0  16:31       36.79
  MH41                 JUNCTION     3.78    31.49   838.49     0  16:43       31.45
  MH42                 JUNCTION     3.48    25.78   830.79     0  16:52       25.43
  MH43                 JUNCTION     2.93    20.68   824.18     0  16:58       20.67
  MH44                 JUNCTION     2.47    16.75   819.05     0  16:59       16.75
  MH45                 JUNCTION     2.07    12.70   813.50     0  16:49       12.62
  MH46                 JUNCTION     1.82    10.95   811.15     0  16:39       10.91
  MH47                 JUNCTION     3.70    15.52   808.28     1  09:00       15.31
  MH48                 JUNCTION     0.30     2.22   804.73     0  16:23        2.14
  MH48A                JUNCTION     0.23     1.93   806.70     0  16:14        1.89
  MH48W                JUNCTION     0.15     0.94   804.20     0  16:15        0.94
  MH49                 JUNCTION     0.75     5.98   805.48     0  16:24        5.90
  MH5                  JUNCTION     0.83    14.77   884.39     0  16:34       14.45
  MH50                 JUNCTION     3.09    16.66   807.66     0  16:24       16.26
  MH51                 JUNCTION     3.53    20.21   807.21     0  16:23       19.09
  MH52                 JUNCTION     2.24    19.80   808.82     0  16:19       17.74
  MH52A                JUNCTION     0.49    20.65   814.05     0  16:17       18.87
  MH52B                JUNCTION     0.41    21.49   817.49     0  16:16       20.33
  MH52W                JUNCTION     0.54    19.40   811.87     0  16:17       17.49
  MH53                 JUNCTION     2.23    60.68   855.07     1  09:48       52.16
  MH54                 JUNCTION     2.32    28.30   815.50     1  09:58       28.19
  MH55                 JUNCTION     3.49    21.53   804.55     0  16:29       21.53
  MH56                 JUNCTION     3.91    19.61   804.81     0  16:26       19.43
  MH57                 JUNCTION     4.00    18.88   801.93     0  16:33       18.74
  MH58                 JUNCTION     4.13    18.78   799.78     0  16:36       18.40
  MH59                 JUNCTION     3.47    14.25   792.90     0  16:41       14.18
  MH6                  JUNCTION     0.48     7.70   878.88     0  16:34        7.58
  MH60                 JUNCTION     2.78    10.19   786.49     0  16:46       10.18
  MH61                 JUNCTION     2.77     7.25   780.02     0  16:48        7.23
  MH62                 JUNCTION     3.04     7.00   776.60     2  07:00        6.99
  MH62A                JUNCTION     3.04     6.97   776.47     2  07:00        6.97
  MH62B                JUNCTION     3.04     7.01   776.45     2  07:00        6.99
  MH62C                JUNCTION     3.76     8.07   776.07     2  07:00        8.07
  MH62D                JUNCTION     1.16     7.90   779.90     2  07:00        7.90
  MH63A                JUNCTION     3.97     7.32   774.82     2  06:59        7.28
  MH63B                JUNCTION     4.29     7.05   774.05     2  07:00        7.05
  MH64                 JUNCTION     4.66     7.67   773.67     2  06:59        7.66
  MH64B                JUNCTION     1.76     3.51   773.51     2  07:00        3.51
  MH64C                JUNCTION     5.46     8.59   773.59     2  06:59        8.52
  MH64E                JUNCTION     0.59     1.94   773.94     2  07:00        1.94
  MH65                 JUNCTION     4.06     8.29   772.98     2  07:01        8.27
  MH66                 JUNCTION     3.88     9.02   772.71     2  07:03        8.94
  MH67                 JUNCTION     3.51    10.13   772.32     2  07:03        9.92
  MH68                 JUNCTION     2.79    11.48   771.67     2  07:04       11.20
  MH69                 JUNCTION     3.06    13.15   771.34     2  07:03       12.89
  MH6A                 JUNCTION     0.10     0.43   876.81     0  16:30        0.43
  MH6B                 JUNCTION     0.14     0.60   877.70     0  16:05        0.60
  MH6W                 JUNCTION     0.11     2.76   876.91     0  16:32        2.71
  MH7                  JUNCTION     1.21    18.83   887.36     0  16:34       18.24
  MH70                 JUNCTION     2.71    15.21   770.90     2  07:01       15.00
  MH71                 JUNCTION     0.27     7.88   772.04     2  07:00        7.84
  MH72                 JUNCTION     2.45    16.42   770.71     2  07:00       16.32
  MH73                 JUNCTION     2.63    13.79   766.83     2  07:01       13.62
  MH74                 JUNCTION     2.72    10.68   762.72     2  07:00       10.50
  MH75                 JUNCTION     1.10     7.18   762.18     2  06:49        7.15
  MH75A                JUNCTION     0.31     3.77   763.17     2  06:49        2.80
  MH76                 JUNCTION     2.47    10.70   761.86     2  07:00       10.05
  MH77                 JUNCTION     2.34    10.80   761.08     2  07:00        9.83
  MH78                 JUNCTION     2.30    10.80   760.75     2  07:00        9.77
  MH79                 JUNCTION     2.11    10.67   759.37     2  07:00        9.48
  MH8                  JUNCTION     1.17    18.65   886.58     0  16:36       17.39
  MH80                 JUNCTION     1.91    10.53   757.98     2  07:00        9.10
  MH81                 JUNCTION     0.11     0.48   760.48     2  07:01        0.43
  MH81A                JUNCTION     0.12     1.71   765.01     2  06:59        1.68
  MH81W                JUNCTION     0.09     0.82   761.72     2  07:00        0.81
  MH82                 JUNCTION     0.00     0.01   759.01     2  07:00        0.00
  MH83                 JUNCTION     0.01     5.66   759.66     2  07:00        1.45
  MH84                 JUNCTION     1.79    10.39   757.34     2  07:00        8.97
  MH85                 JUNCTION     1.62    10.11   756.83     2  07:00        8.72
  MH86                 JUNCTION     2.11    10.33   756.25     2  07:00        9.22
  MH87                 JUNCTION     1.85     9.39   754.99     2  07:02        8.76
  MH87A                JUNCTION     0.30    12.69   765.69     2  07:01       12.03
  MH87W                JUNCTION     0.20     5.03   756.43     2  07:02        3.76
  MH88                 JUNCTION     1.94     9.22   754.49     2  07:02        8.84
  MH89                 JUNCTION     1.88     8.92   754.05     2  07:02        8.69
  MH9                  JUNCTION     1.14    18.63   885.96     0  16:36       17.30
  MH90                 JUNCTION     1.68     8.54   753.52     2  07:02        8.52
  MH91                 JUNCTION     1.87     8.70   752.98     1  05:15        8.70
  MH91A                JUNCTION     0.05     0.47   752.70     1  05:15        0.46
  MH91W                JUNCTION     0.07     2.15   752.73     1  05:15        2.14
  MH92                 JUNCTION     1.95     8.94   752.85     1  05:15        8.93
  MH92A                JUNCTION     0.19     0.86   754.81     2  07:00        0.86
  MH92B                JUNCTION     4.09     7.85   752.87     1  05:16        7.84
  MH92W                JUNCTION     0.27     1.09   754.00     2  07:00        1.09
  MH93                 JUNCTION     2.01     9.01   752.82     1  05:15        9.01
  MH94                 JUNCTION     1.93     9.03   752.82     1  05:15        9.02
  MH95                 JUNCTION     1.92     9.06   752.79     1  05:14        9.03
  MH96                 JUNCTION     1.95     9.09   752.67     1  05:15        9.05
  MH97                 JUNCTION     1.89    10.32   753.15     2  06:59        9.65
  MH98                 JUNCTION     2.05    11.43   753.88     1  09:45        9.39
  MH99                 JUNCTION     1.98    13.00   755.08     1  09:44        9.45
  MH10R                OUTFALL      0.05     0.68   865.53     0  16:35        0.67
  MH117R               OUTFALL      0.09     0.66   733.59     0  16:22        0.66
  MH117R2              OUTFALL      0.00     0.00   732.93     0  00:00        0.00
  MH122R               OUTFALL      0.03     0.95   736.75     2  07:06        0.93
  MH135R               OUTFALL      0.00     0.00   729.50     0  00:00        0.00
  MH1R                 OUTFALL      0.02     0.51   872.51     0  16:33        0.50
  MH36R                OUTFALL      0.20     1.00   818.00     0  15:54        1.00
  MH48R                OUTFALL      0.08     0.84   799.84     0  16:15        0.84
  MH52R                OUTFALL      0.22     1.25   790.25     0  15:48        1.25
  MH63BR               OUTFALL      0.12     0.71   764.71     2  07:00        0.71
  MH64BR               OUTFALL      0.15     0.81   770.81     2  07:00        0.81
  MH6R                 OUTFALL      0.05     0.96   869.96     0  16:31        0.96
  MH75R                OUTFALL      0.02     0.65   758.70     2  07:00        0.64
  MH81R                OUTFALL      0.01     0.61   755.61     2  07:00        0.61
  MH87R                OUTFALL      0.06     0.83   748.93     0  16:03        0.83
  MH91R                OUTFALL      0.02     0.63   750.73     1  05:15        0.63
  MH92R                OUTFALL      0.00     0.34   744.31     1  05:15        0.33
  MH92R2               OUTFALL      0.03     0.59   752.49     2  07:00        0.58
  OFALL-10             OUTFALL      0.00     0.00   874.15     0  00:00        0.00
  OUTFALL_WWTP         OUTFALL      0.59     0.92   730.56     1  10:32        0.91
  PS-ARCH              STORAGE      4.34    15.73   874.00     0  16:11       15.73
  THR_WET_WELL         STORAGE      3.98     8.82   719.82     2  07:00        8.79
  WWTP_WET_WELL        STORAGE      5.19    13.88   713.88     1  10:30       12.22
  
  
  *******************
  Node Inflow Summary
  *******************
  
  -------------------------------------------------------------------------------------------------
                                  Maximum  Maximum                  Lateral       Total        Flow
                                  Lateral    Total  Time of Max      Inflow      Inflow     Balance
                                   Inflow   Inflow   Occurrence      Volume      Volume       Error
  Node                 Type           MGD      MGD  days hr:min    10^6 gal    10^6 gal     Percent
  -------------------------------------------------------------------------------------------------
  MH-WWTP              JUNCTION     0.000   44.379     0  16:47           0        27.8       0.023
  MH1                  JUNCTION     0.000    3.340     0  16:33           0       0.242       0.081
  MH10                 JUNCTION     0.000   12.714     2  05:03           0        2.29      -0.033
  MH100                JUNCTION     0.000   17.077     2  06:58           0        16.7       0.002
  MH100A               JUNCTION     0.000   16.104     2  06:58           0        16.7      -0.006
  MH101A               JUNCTION     0.000   15.302     2  06:58           0        16.7       0.002
  MH103                JUNCTION    21.876   21.876     1  09:00         6.1        6.12       0.148
  MH104                JUNCTION     0.000   15.463     0  16:16           0        6.11      -0.002
  MH105                JUNCTION     0.000   15.065     0  16:18           0        6.11       0.314
  MH107A               JUNCTION     0.000   25.684     1  09:47           0        22.8      -0.061
  MH108A               JUNCTION     0.000   24.332     1  09:47           0        22.8      -0.003
  MH109                JUNCTION     0.000   24.319     1  09:47           0        22.8       0.000
  MH10A                JUNCTION     0.000    0.137     2  21:08           0     0.00125       1.366
  MH10W                JUNCTION     0.000   11.140     0  16:35           0        1.37       0.006
  MH11                 JUNCTION     0.000   14.128     2  05:01           0        1.93       0.076
  MH110                JUNCTION     0.000   23.838     0  16:17           0        22.8      -0.000
  MH111                JUNCTION     0.000   23.681     0  16:18           0        22.8      -0.007
  MH112                JUNCTION     0.000   23.681     0  16:19           0        22.8      -0.002
  MH113                JUNCTION     0.000   23.599     0  16:19           0        22.8      -0.003
  MH115                JUNCTION     0.000   23.544     0  16:20           0        22.8      -0.003
  MH116                JUNCTION     1.469   23.606     0  16:22       0.212        23.1      -0.006
  MH117                JUNCTION     0.000   23.605     0  16:21           0        23.1       0.000
  MH117D               JUNCTION     0.000   15.157     0  16:22           0        21.4       0.001
  MH117W               JUNCTION     0.000    8.445     0  16:22           0         1.6       0.001
  MH117W2              JUNCTION     0.000    0.000     0  00:00           0           0       0.000 gal
  MH118                JUNCTION     0.000   15.334     1  05:15           0        21.5       0.000
  MH118A               JUNCTION     0.543   15.341     1  05:15        0.09        21.5       0.001
  MH119                JUNCTION     0.000   15.331     1  05:16           0        21.5       0.001
  MH12                 JUNCTION    31.466   31.466     2  05:00        3.22        4.12      -0.006
  MH120                JUNCTION     0.000   15.328     1  05:16           0        21.5       0.001
  MH121                JUNCTION     0.000   16.837     2  07:06           0        22.5       0.002
  MH122                JUNCTION     0.000    2.686     1  10:18           0        0.96       0.018
  MH122A               JUNCTION     0.000    6.443     2  07:02           0        1.12      -0.014
  MH122B               JUNCTION    10.063   10.063     2  07:00        1.12        1.12      -0.006
  MH122W               JUNCTION     0.000    5.482     2  07:06           0        1.12       0.002
  MH123                JUNCTION     0.000    2.787     1  10:18           0        0.96       0.002
  MH124                JUNCTION     0.000    2.066     1  10:19           0        0.96      -0.017
  MH125                JUNCTION     0.000    1.693     1  10:20           0        0.96      -0.016
  MH126                JUNCTION     0.000    1.647     2  07:06           0        0.96       0.000
  MH127                JUNCTION     0.000    1.645     2  07:07           0        0.96      -0.008
  MH128                JUNCTION     0.000   16.829     2  07:06           0        22.5      -0.000
  MH129                JUNCTION     0.000   16.821     2  07:07           0        22.5       0.001
  MH13                 JUNCTION     0.000    3.829     2  21:36           0        2.64      -0.001
  MH130                JUNCTION     0.000   16.800     2  07:07           0        22.5       0.000
  MH131                JUNCTION     0.000   16.786     1  05:19           0        22.5       0.001
  MH132                JUNCTION     0.000   16.782     1  05:20           0        22.5       0.001
  MH133                JUNCTION     0.000   16.773     1  05:21           0        22.5       0.001
  MH134                JUNCTION     0.000   16.680     1  05:21           0        22.5       0.001
  MH135                JUNCTION     0.000    0.319     1  10:45           0       0.052      -0.001
  MH135A               JUNCTION     0.000    0.321     1  10:45           0      0.0521       0.021
  MH135B               JUNCTION     0.322    0.322     1  10:45      0.0517       0.052      -0.017
  MH135W               JUNCTION     0.000    0.319     1  10:45           0       0.052       0.001
  MH135WR              JUNCTION     0.000    0.000     0  00:00           0           0       0.000 gal
  MH136                JUNCTION     0.000   16.659     1  10:54           0        22.6       0.001
  MH137                JUNCTION     0.000   16.668     1  10:54           0        22.6       0.001
  MH138                JUNCTION     0.000   16.656     1  10:54           0        22.5       0.001
  MH139                JUNCTION     0.000   16.652     1  10:54           0        22.5       0.001
  MH13P                JUNCTION     0.000    7.130     0  10:37           0        2.69       0.004
  MH13P2               JUNCTION     0.000    4.101     2  21:36           0        2.68       0.012
  MH14                 JUNCTION     0.000    3.539     2  21:59           0        2.64      -0.011
  MH140                JUNCTION     0.000   16.654     1  10:54           0        22.5       0.000
  MH141                JUNCTION     0.000   16.674     1  10:54           0        22.5       0.001
  MH142                JUNCTION     0.000   16.698     1  10:55           0        22.5       0.002
  MH143                JUNCTION     1.280   16.956     1  10:45       0.304        22.9       0.000
  MH144                JUNCTION     0.000   16.936     1  10:45           0        22.9       0.001
  MH145                JUNCTION     0.901   17.383     1  10:45       0.207        23.1       0.000
  MH146                JUNCTION     0.000   17.374     1  10:45           0        23.1       0.000
  MH147                JUNCTION     0.000   17.358     1  10:45           0        23.1       0.002
  MH148                JUNCTION     0.000   17.351     1  10:46           0        23.1       0.000
  MH149                JUNCTION     0.000   17.398     1  10:49           0        23.1       0.001
  MH15                 JUNCTION     0.000    3.456     2  21:36           0        2.64       0.003
  MH150                JUNCTION     0.000   20.479     1  05:34           0        25.3      -0.003
  MH151                JUNCTION     0.000    3.875     2  07:14           0        2.26      -0.022
  MH152                JUNCTION     0.000    4.340     2  07:05           0        2.26       0.003
  MH153                JUNCTION     0.000    5.562     2  07:01           0        2.26      -0.019
  MH154                JUNCTION     7.990    7.990     2  07:00        2.25        2.26       0.020
  MH155                JUNCTION     0.000   22.728     1  10:30           0        25.8       0.000
  MH155GC              JUNCTION     0.000   23.439     1  10:30           0        26.5      -0.001
  MH156                JUNCTION     0.000   23.263     1  10:32           0        27.8      -0.009
  MH16                 JUNCTION     0.000    3.459     2  21:36           0        2.64      -0.009
  MH17                 JUNCTION     0.000    3.394     2  21:40           0        2.64      -0.005
  MH18                 JUNCTION     0.000    3.391     2  21:39           0        2.64      -0.004
  MH19                 JUNCTION     0.000    3.391     2  21:40           0        2.66      -0.005
  MH1A                 JUNCTION     0.000    0.387     2  06:50           0     0.00115       1.533
  MH2                  JUNCTION     0.000    3.339     0  16:33           0       0.272      -0.041
  MH20                 JUNCTION     0.000    3.396     2  21:40           0        2.72      -0.002
  MH200                JUNCTION     0.000    6.359     2  07:00           0       0.746       0.001
  MH200P               JUNCTION     0.000    0.908     2  07:00           0       0.986      -0.006
  MH201                JUNCTION     0.000    7.323     2  07:00           0        1.44      -0.124
  MH202                JUNCTION     7.326    7.326     2  07:00        1.16        1.16       0.281
  MH21                 JUNCTION     0.000    3.321     2  21:43           0        2.82      -0.003
  MH22                 JUNCTION     0.000    3.661     0  16:48           0        2.94      -0.006
  MH23                 JUNCTION     0.000    5.120     0  16:39           0        3.09       0.004
  MH24                 JUNCTION    11.170   11.170     2  05:00       0.746        3.67      -0.006
  MH25                 JUNCTION     0.000    3.908     2  05:01           0        3.45      -0.002
  MH26                 JUNCTION     0.000    4.461     0  16:32           0        3.54      -0.008
  MH26A                JUNCTION     0.000    6.992     0  16:30           0        3.68       0.001
  MH27                 JUNCTION    20.959   20.959     0  16:15        1.37        4.94       0.001
  MH28                 JUNCTION     0.000    9.385     0  16:31           0        4.75      -0.002
  MH29                 JUNCTION     0.000    7.076     0  16:39           0        4.75       0.000
  MH3                  JUNCTION    15.835   15.835     0  16:15        1.69        1.69       0.080
  MH30                 JUNCTION     0.000    5.752     0  16:51           0        4.75      -0.006
  MH31                 JUNCTION     0.000    5.165     0  17:28           0        4.75       0.001
  MH32                 JUNCTION     0.000    5.268     0  17:35           0        4.75      -0.003
  MH34                 JUNCTION     0.000    5.527     0  17:21           0        4.75       0.000
  MH35                 JUNCTION     0.000    6.063     0  17:20           0        4.75      -0.015
  MH36                 JUNCTION     0.000    9.165     0  16:15           0        6.35       0.008
  MH36B                JUNCTION    19.388   19.388     0  16:15        2.77        2.77       0.028
  MH36W                JUNCTION     0.000   15.916     0  16:17           0        3.24      -0.066
  MH37                 JUNCTION     0.000    7.456     0  16:18           0        5.88      -0.010
  MH38                 JUNCTION     0.579    6.122     0  16:18      0.0234         5.9      -0.012
  MH39                 JUNCTION     8.561    8.561     0  16:15       0.642       0.643      -0.021
  MH4                  JUNCTION     0.000   13.465     0  16:16           0        1.91       0.106
  MH40                 JUNCTION     0.000    6.424     0  16:16           0       0.643       0.230
  MH41                 JUNCTION     0.505    9.690     0  16:21      0.0183        6.56      -0.020
  MH42                 JUNCTION     0.000    8.056     0  16:31           0        6.56      -0.003
  MH43                 JUNCTION     0.000    7.051     0  16:42           0        6.56      -0.008
  MH44                 JUNCTION     0.000    6.647     0  16:57           0        6.56      -0.003
  MH45                 JUNCTION     0.000    6.735     0  17:06           0        6.56      -0.008
  MH46                 JUNCTION     0.000    6.872     0  17:04           0        6.56      -0.024
  MH47                 JUNCTION     0.000    6.887     0  16:58           0        7.47      -0.027
  MH48                 JUNCTION     0.000    2.596     0  16:26           0        1.02       0.099
  MH48A                JUNCTION    11.266   11.266     0  16:15        1.82        1.82      -0.004
  MH48W                JUNCTION     0.000   13.108     0  16:15           0        1.92       0.003
  MH49                 JUNCTION     0.000    2.595     0  16:26           0        1.02      -0.073
  MH5                  JUNCTION     0.000    4.684     0  16:31           0       0.511       0.006
  MH50                 JUNCTION     0.000    6.053     0  17:20           0        7.37      -0.074
  MH51                 JUNCTION     0.000    9.453     1  09:00           0        8.19       0.022
  MH52                 JUNCTION     0.000    8.313     0  16:16           0        1.73       0.635
  MH52A                JUNCTION     0.000   37.138     0  16:15           0        3.76      -0.000
  MH52B                JUNCTION    39.613   39.613     0  16:15        3.76        3.76      -0.004
  MH52W                JUNCTION     0.000   34.759     0  16:15           0        4.66      -0.012
  MH53                 JUNCTION    15.463   15.463     1  09:45        1.87        1.87      -0.008
  MH54                 JUNCTION     0.000    7.635     1  09:47           0        1.87      -0.090
  MH55                 JUNCTION     0.000    5.463     1  09:54           0        1.88       0.001
  MH56                 JUNCTION     0.000    6.545     0  16:18           0        7.28       0.004
  MH57                 JUNCTION     0.000    5.520     0  16:21           0        7.28      -0.015
  MH58                 JUNCTION     0.000    8.195     0  16:24           0        9.15       0.002
  MH59                 JUNCTION     0.000    7.376     0  16:30           0        9.15      -0.002
  MH6                  JUNCTION     0.000    4.582     0  16:34           0       0.511       0.202
  MH60                 JUNCTION     0.000    6.986     0  16:38           0        9.15      -0.007
  MH61                 JUNCTION     0.000    6.850     0  16:44           0        9.15      -0.012
  MH62                 JUNCTION     0.000    6.832     0  16:50           0        9.16      -0.014
  MH62A                JUNCTION     0.000    6.842     0  16:50           0        9.16      -0.009
  MH62B                JUNCTION     0.000    6.855     0  16:50           0        9.16      -0.009
  MH62C                JUNCTION     0.000   18.388     2  07:00           0        11.8      -0.011
  MH62D                JUNCTION    13.386   13.386     2  07:00        2.66        2.66      -0.013
  MH63A                JUNCTION     0.000   18.383     2  07:00           0        11.8      -0.014
  MH63B                JUNCTION     0.000   18.404     2  07:00           0        11.8       0.003
  MH64                 JUNCTION     0.000    9.297     1  08:56           0        9.33      -0.012
  MH64B                JUNCTION     0.000    8.029     2  07:00           0        1.97       0.048
  MH64C                JUNCTION     0.000    9.306     1  08:56           0        9.66      -0.013
  MH64E                JUNCTION     5.974    5.974     2  07:00        1.54        1.54      -0.082
  MH65                 JUNCTION     0.000    5.478     0  10:13           0        9.23       0.001
  MH66                 JUNCTION     0.000    5.476     0  10:13           0        9.23      -0.001
  MH67                 JUNCTION     0.000    5.474     0  10:13           0        9.23      -0.009
  MH68                 JUNCTION     0.000    5.475     0  10:13           0        9.23      -0.004
  MH69                 JUNCTION     0.000    5.188     0  10:14           0        9.23       0.002
  MH6A                 JUNCTION     0.000    1.707     0  16:05           0       0.408       0.086
  MH6B                 JUNCTION     1.701    1.701     0  16:15       0.393         0.4      -0.010
  MH6W                 JUNCTION     0.000    4.590     0  16:35           0       0.549      -0.067
  MH7                  JUNCTION     0.000    4.746     0  16:17           0        1.31       0.013
  MH70                 JUNCTION     0.000    5.199     0  10:14           0        9.23      -0.014
  MH71                 JUNCTION    14.802   14.802     2  07:00        2.97        2.97      -0.021
  MH72                 JUNCTION     0.000   15.489     2  07:00           0        12.2       0.011
  MH73                 JUNCTION     0.000   14.775     2  07:00           0        12.2      -0.004
  MH74                 JUNCTION     0.000   14.405     2  07:02           0        13.2       0.004
  MH75                 JUNCTION     0.000   13.194     2  07:00           0        1.54      -0.086
  MH75A                JUNCTION     6.475    6.475     2  07:00         1.3         1.3      -0.028
  MH76                 JUNCTION     0.000   10.083     2  04:49           0          13      -0.003
  MH77                 JUNCTION     0.000    9.730     2  04:10           0          13      -0.006
  MH78                 JUNCTION     0.000    9.726     2  04:10           0          13       0.007
  MH79                 JUNCTION     0.427    9.827     2  06:49      0.0435          13      -0.004
  MH8                  JUNCTION     0.000    3.482     0  16:18           0        1.29      -0.012
  MH80                 JUNCTION     0.000    9.824     2  06:49           0          13      -0.004
  MH81                 JUNCTION     0.000    2.133     2  07:00           0       0.616      -0.005
  MH81A                JUNCTION     5.402    5.402     2  07:00       0.655       0.655      -0.002
  MH81W                JUNCTION     0.000    5.398     2  07:00           0       0.655       0.000
  MH82                 JUNCTION     0.000    0.126     2  07:00           0    2.82e-06       0.647 gal
  MH83                 JUNCTION     0.000    1.057     2  07:00           0     0.00155      -0.883
  MH84                 JUNCTION     0.000   11.567     2  06:49           0        13.6      -0.001
  MH85                 JUNCTION     0.000   11.567     2  06:49           0        13.6      -0.003
  MH86                 JUNCTION     0.000   11.630     2  06:49           0        13.6       0.003
  MH87                 JUNCTION     0.000   15.801     2  06:59           0        14.8      -0.002
  MH87A                JUNCTION    10.826   10.826     2  07:00        1.55        1.55       0.035
  MH87W                JUNCTION     0.000    9.325     2  07:00           0         1.6      -0.011
  MH88                 JUNCTION     0.000   15.801     2  06:59           0        14.8      -0.001
  MH89                 JUNCTION     0.000   15.788     2  06:59           0        14.8       0.001
  MH9                  JUNCTION     0.000    3.046     0  16:00           0        1.28      -0.043
  MH90                 JUNCTION     0.000   15.777     2  06:58           0        14.8       0.000
  MH91                 JUNCTION     0.000   16.082     2  06:59           0        14.8      -0.006
  MH91A                JUNCTION     0.319    0.319     2  07:00      0.0491      0.0491      -0.027
  MH91W                JUNCTION     0.000    1.503     1  05:15           0       0.127      -0.805
  MH92                 JUNCTION     0.000   17.604     2  06:59           0        15.7       0.004
  MH92A                JUNCTION     5.801    5.801     2  07:00        1.14        1.14      -0.006
  MH92B                JUNCTION     0.000    1.033     0  15:23           0    0.000846     446.688
  MH92W                JUNCTION     0.000    5.796     2  07:00           0        1.14       0.005
  MH93                 JUNCTION     0.000   17.101     2  06:58           0        15.6      -0.005
  MH94                 JUNCTION     0.000   17.070     2  06:58           0        15.6      -0.004
  MH95                 JUNCTION    12.249   19.490     1  09:44        1.08        16.7      -0.002
  MH96                 JUNCTION     0.000   19.444     1  09:44           0        16.7       0.005
  MH97                 JUNCTION     0.000   19.235     2  06:58           0        16.7      -0.010
  MH98                 JUNCTION     0.000   18.384     2  06:58           0        16.7       0.001
  MH99                 JUNCTION     0.000   17.977     2  06:58           0        16.7      -0.003
  MH10R                OUTFALL      0.000   11.141     0  16:35           0        1.36       0.000
  MH117R               OUTFALL      0.000    8.445     0  16:22           0         1.6       0.000
  MH117R2              OUTFALL      0.000    0.000     0  00:00           0           0       0.000 gal
  MH122R               OUTFALL      0.000    3.839     2  07:06           0       0.162       0.000
  MH135R               OUTFALL      0.000    0.000     0  00:00           0           0       0.000 gal
  MH1R                 OUTFALL      0.000    3.339     0  16:33           0       0.233       0.000
  MH36R                OUTFALL      0.000    7.154     0  16:32           0        1.65       0.000
  MH48R                OUTFALL      0.000   13.070     0  16:15           0        1.02       0.000
  MH52R                OUTFALL      0.000   25.317     0  16:17           0        3.84       0.000
  MH63BR               OUTFALL      0.000   13.872     2  07:00           0        2.49       0.000
  MH64BR               OUTFALL      0.000    8.028     2  07:00           0        1.65       0.000
  MH6R                 OUTFALL      0.000    3.964     0  16:31           0        0.39       0.000
  MH75R                OUTFALL      0.000   13.235     2  07:00           0       0.536       0.000
  MH81R                OUTFALL      0.000    3.258     2  07:00           0      0.0392       0.000
  MH87R                OUTFALL      0.000    4.461     2  07:02           0       0.414       0.000
  MH91R                OUTFALL      0.000    1.356     1  05:15           0      0.0876       0.000
  MH92R                OUTFALL      0.000    2.530     1  05:15           0      0.0114       0.000
  MH92R2               OUTFALL      0.000    4.252     2  07:00           0       0.212       0.000
  OFALL-10             OUTFALL      0.000    1.085     0  16:30           0       0.217       0.000
  OUTFALL_WWTP         OUTFALL      0.000   23.203     1  10:32           0        27.8       0.000
  PS-ARCH              STORAGE      0.000   13.091     2  05:02           0         3.1       0.003
  THR_WET_WELL         STORAGE      0.000    1.023     2  06:49           0       0.987       0.070
  WWTP_WET_WELL        STORAGE      0.000   23.435     1  10:30           0        26.5      -4.595
  
  
  **********************
  Node Surcharge Summary
  **********************
  
  Surcharging occurs when water rises above the top of the highest conduit.
  ---------------------------------------------------------------------
                                               Max. Height   Min. Depth
                                   Hours       Above Crown    Below Rim
  Node                 Type      Surcharged           Feet         Feet
  ---------------------------------------------------------------------
  MH-WWTP              JUNCTION       81.75         35.629        0.000
  MH10                 JUNCTION        6.21         17.396        0.000
  MH100                JUNCTION        8.44          6.998        1.152
  MH100A               JUNCTION        8.62          7.064        1.366
  MH101A               JUNCTION        8.03          7.056        0.000
  MH103                JUNCTION       13.55        118.810        0.000
  MH104                JUNCTION        5.83         19.268        0.000
  MH105                JUNCTION       13.15         10.249        0.000
  MH107A               JUNCTION        7.87          7.144        0.000
  MH108A               JUNCTION       13.30          7.905        0.000
  MH109                JUNCTION       13.58          7.583        0.000
  MH11                 JUNCTION        7.06         29.928        0.000
  MH110                JUNCTION       15.00          7.430        0.000
  MH111                JUNCTION       15.32          6.697        5.613
  MH112                JUNCTION       16.63          6.617        0.000
  MH113                JUNCTION       18.84          6.310        0.000
  MH115                JUNCTION       22.77          6.151        0.000
  MH116                JUNCTION       27.21          5.698        2.462
  MH12                 JUNCTION       10.11         48.924        0.000
  MH122                JUNCTION        6.37          3.723        9.737
  MH122A               JUNCTION        2.60         13.608        0.000
  MH122B               JUNCTION        3.12         31.545        0.000
  MH122W               JUNCTION        0.19          0.658        9.342
  MH123                JUNCTION        6.99          4.382        3.878
  MH124                JUNCTION        6.76          5.752        1.508
  MH125                JUNCTION        6.16          2.862        4.398
  MH13                 JUNCTION       14.17         18.583        0.000
  MH136                JUNCTION        1.71          0.515        7.725
  MH137                JUNCTION        1.45          0.397        7.823
  MH138                JUNCTION        0.71          0.239       10.161
  MH139                JUNCTION        0.18          0.057       10.253
  MH13P                JUNCTION       81.75         85.578        0.000
  MH13P2               JUNCTION       81.75         57.781        0.000
  MH14                 JUNCTION       14.91         19.571        0.000
  MH15                 JUNCTION       15.33         20.055        0.000
  MH151                JUNCTION       11.59          4.840        7.700
  MH152                JUNCTION       14.56         13.280        0.000
  MH153                JUNCTION       13.39         19.998        0.000
  MH154                JUNCTION       13.93         33.771        0.000
  MH16                 JUNCTION       15.71         20.623        0.000
  MH17                 JUNCTION       16.09         21.583        0.000
  MH18                 JUNCTION       16.24         22.516        0.000
  MH19                 JUNCTION       16.49         23.714        0.000
  MH2                  JUNCTION        3.77          4.502        0.000
  MH20                 JUNCTION       16.88         25.584        0.000
  MH200                JUNCTION        0.39          0.765       10.415
  MH200P               JUNCTION       71.00          8.240        0.000
  MH201                JUNCTION        0.34          2.605        7.838
  MH202                JUNCTION        1.01          8.869        3.151
  MH21                 JUNCTION       17.16         27.229        0.000
  MH22                 JUNCTION       17.48         29.501        0.000
  MH23                 JUNCTION       17.72         32.996        0.000
  MH24                 JUNCTION       17.90         40.417        0.000
  MH25                 JUNCTION       20.03         43.494        0.000
  MH26                 JUNCTION       17.57         44.988        0.000
  MH26A                JUNCTION       17.38         46.453        0.000
  MH27                 JUNCTION       18.20         53.190        0.000
  MH28                 JUNCTION       18.07         36.554        0.000
  MH29                 JUNCTION       17.46         28.331        0.000
  MH3                  JUNCTION        2.81         25.510        0.000
  MH30                 JUNCTION       17.25         22.521        0.000
  MH31                 JUNCTION       13.91         17.079        0.000
  MH32                 JUNCTION       13.64         13.283        0.000
  MH34                 JUNCTION       13.30         12.308        0.000
  MH35                 JUNCTION       13.20         13.354        0.000
  MH36                 JUNCTION        2.20         14.801        0.000
  MH36B                JUNCTION        9.07         53.005        0.000
  MH36W                JUNCTION        4.47         23.754        0.000
  MH37                 JUNCTION       26.22         23.621        0.000
  MH38                 JUNCTION       27.43         22.044        0.000
  MH39                 JUNCTION        7.32         34.064        0.000
  MH4                  JUNCTION        4.13         14.559        0.000
  MH40                 JUNCTION       25.51         35.914        0.000
  MH41                 JUNCTION        4.39         20.176        0.000
  MH42                 JUNCTION       27.36         24.285        0.000
  MH43                 JUNCTION       26.70         19.176        0.000
  MH44                 JUNCTION       25.95         15.248        0.000
  MH45                 JUNCTION       26.89         11.204        0.000
  MH46                 JUNCTION       23.59          9.453        0.000
  MH47                 JUNCTION        7.71          7.755        0.000
  MH48                 JUNCTION        3.94          1.217        6.293
  MH48A                JUNCTION        0.03          0.432        4.178
  MH49                 JUNCTION        6.74          3.479        4.521
  MH5                  JUNCTION        6.75         13.770        0.000
  MH50                 JUNCTION       33.46         15.155        0.000
  MH51                 JUNCTION       24.34         15.907        0.000
  MH52                 JUNCTION       27.48         18.304        0.000
  MH52A                JUNCTION        1.57         18.649        0.000
  MH52B                JUNCTION        1.05         19.493        0.000
  MH52W                JUNCTION        2.06         17.404        0.000
  MH53                 JUNCTION        6.99         59.680        0.000
  MH54                 JUNCTION       11.83         27.302        0.000
  MH55                 JUNCTION       28.87         20.535        0.000
  MH56                 JUNCTION       31.22         18.110        0.000
  MH57                 JUNCTION       31.58         17.375        0.000
  MH58                 JUNCTION       32.44         17.283        0.000
  MH59                 JUNCTION       32.22         12.754        0.000
  MH6                  JUNCTION        5.06          6.495        0.000
  MH60                 JUNCTION       31.29          8.686        0.000
  MH61                 JUNCTION       33.95          5.753        0.000
  MH62                 JUNCTION       36.91          5.497        5.523
  MH62A                JUNCTION       36.22          4.970        5.110
  MH62B                JUNCTION       36.28          5.013        3.547
  MH62C                JUNCTION       38.52          6.071        2.919
  MH62D                JUNCTION       26.61          6.403        1.407
  MH63A                JUNCTION       39.31          5.325        3.745
  MH64                 JUNCTION       42.66          6.000        6.013
  MH64C                JUNCTION       45.77          6.920        5.664
  MH65                 JUNCTION       41.84          6.792        0.000
  MH66                 JUNCTION       42.34          7.520        0.000
  MH67                 JUNCTION       41.44          8.629        1.681
  MH68                 JUNCTION       37.00          9.983        0.000
  MH69                 JUNCTION       39.47         11.650        0.000
  MH6W                 JUNCTION        0.65          0.913        0.097
  MH7                  JUNCTION        7.54         17.577        0.000
  MH70                 JUNCTION       37.29         13.713        0.000
  MH71                 JUNCTION        0.91          5.881        0.000
  MH72                 JUNCTION       13.12         14.424        0.000
  MH73                 JUNCTION       16.47         11.794        0.000
  MH74                 JUNCTION       18.31          8.680        3.520
  MH75A                JUNCTION        1.06          1.268        2.832
  MH76                 JUNCTION       15.69          8.698        0.542
  MH77                 JUNCTION       14.75          8.800        2.470
  MH78                 JUNCTION       13.93          8.796        1.784
  MH79                 JUNCTION       12.15          8.673        2.817
  MH8                  JUNCTION        7.17         17.396        0.000
  MH80                 JUNCTION       10.57          8.533        4.577
  MH81A                JUNCTION        0.03          0.715        2.985
  MH83                 JUNCTION        0.23          4.663        8.137
  MH84                 JUNCTION        9.20          8.392        2.988
  MH85                 JUNCTION        6.28          7.610        7.170
  MH86                 JUNCTION        8.51          7.827        3.303
  MH87                 JUNCTION        6.37          6.893        0.007
  MH87A                JUNCTION        1.19         11.690        0.000
  MH87W                JUNCTION        1.16          3.778        0.000
  MH88                 JUNCTION        6.55          6.718        0.512
  MH89                 JUNCTION        5.96          6.416        1.954
  MH9                  JUNCTION        6.92         17.377        0.000
  MH90                 JUNCTION        5.71          6.036        2.484
  MH91                 JUNCTION        5.48          5.705        0.885
  MH91W                JUNCTION        1.38          1.278        1.145
  MH92B                JUNCTION       66.36          6.353        7.127
  MH93                 JUNCTION        5.71          6.015        0.000
  MH94                 JUNCTION        5.65          6.025        0.357
  MH95                 JUNCTION        5.68          6.059        1.191
  MH96                 JUNCTION        5.74          6.093        1.092
  MH97                 JUNCTION        6.49          7.323        0.787
  MH98                 JUNCTION        7.11          8.430        0.000
  MH99                 JUNCTION        7.29         10.000        0.000
  
  
  *********************
  Node Flooding Summary
  *********************
  
  Flooding refers to all water that overflows a node, whether it ponds or not.
  --------------------------------------------------------------------------
                                                             Total   Maximum
                                 Maximum   Time of Max       Flood    Ponded
                        Hours       Rate    Occurrence      Volume     Depth
  Node                 Flooded       MGD   days hr:min    10^6 gal      Feet
  --------------------------------------------------------------------------
  MH-WWTP                81.75    28.546      3  01:42       9.319    19.129
  MH10                    2.19     1.275      0  16:16       0.032    10.318
  MH101A                  1.29     1.204      1  09:49       0.008     1.126
  MH103                  13.30    10.362      1  08:50       0.658   116.810
  MH104                   1.45     0.777      1  09:48       0.016     8.618
  MH105                   3.97     4.078      2  06:59       0.031     5.369
  MH107A                  2.25     2.648      1  09:47       0.018     1.884
  MH108A                  0.49     0.217      0  16:11       0.001     0.405
  MH109                   3.06     3.588      1  09:47       0.030     2.533
  MH11                    2.62     2.537      0  16:15       0.063    21.208
  MH110                   0.64     0.249      0  16:10       0.002     0.430
  MH112                   1.37     0.278      1  05:13       0.004     0.707
  MH113                   1.35     0.313      1  05:13       0.004     0.590
  MH115                   0.85     0.182      1  05:15       0.002     0.271
  MH12                    3.32     6.505      0  16:15       0.162    40.644
  MH122A                  0.31     1.227      2  07:01       0.005     4.008
  MH122B                  1.07     3.964      2  07:00       0.029    22.845
  MH13                   12.21     0.467      0  16:04       0.054    15.250
  MH13P                  81.75     6.418      2  21:03       1.074    73.745
  MH13P2                 81.75     1.031      2  04:13       0.254    45.948
  MH14                   12.00     0.632      0  17:05       0.065    14.461
  MH15                   14.67     0.761      0  17:03       0.088    16.935
  MH152                   1.77     0.693      2  07:04       0.010     3.590
  MH153                   4.69     1.770      2  06:58       0.048    11.578
  MH154                   6.16     2.965      2  06:50       0.078    23.625
  MH16                   12.83     0.715      0  16:57       0.062    15.373
  MH17                    9.13     0.634      0  16:53       0.038    11.623
  MH18                   11.75     0.818      0  16:41       0.058    16.426
  MH19                   11.58     1.019      0  16:38       0.069    17.444
  MH2                     0.01     1.072      2  06:48       0.000     0.002
  MH20                   13.31     1.156      0  16:19       0.079    20.074
  MH200P                  0.23     0.161      2  07:00       0.001     0.740
  MH21                   13.69     1.380      0  16:20       0.080    21.639
  MH22                   15.27     1.824      0  16:14       0.099    24.701
  MH23                   15.50     2.147      0  16:10       0.119    27.786
  MH24                   15.59     3.778      0  16:15       0.148    35.127
  MH25                   15.66     3.502      0  16:17       0.146    38.114
  MH26                   14.69     2.993      0  16:18       0.126    39.888
  MH26A                  13.77     3.315      0  16:16       0.118    39.323
  MH27                   13.80     7.690      0  16:15       0.164    44.690
  MH28                   13.86     3.048      0  16:18       0.123    30.124
  MH29                   12.42     1.645      0  16:33       0.082    21.231
  MH3                     2.42     2.852      0  16:15       0.039    22.550
  MH30                   10.25     1.140      0  16:39       0.052    14.671
  MH31                   10.41     0.855      0  16:39       0.040    11.919
  MH32                    8.43     0.796      0  16:34       0.031     8.213
  MH34                    1.10     1.221      0  16:19       0.012     5.338
  MH35                    1.40     1.184      0  16:14       0.015     8.184
  MH36                    1.39     1.899      0  16:15       0.025    10.631
  MH36B                   2.20     4.082      0  16:05       0.057    41.155
  MH36W                   1.43     1.637      0  16:05       0.017    11.444
  MH37                    1.30     1.808      0  16:17       0.025     9.461
  MH38                    2.15     1.783      0  16:19       0.039    11.284
  MH39                    3.51     2.376      0  16:15       0.035    24.524
  MH4                     1.71     1.832      0  16:15       0.025     8.969
  MH40                    3.70     1.967      0  16:15       0.042    22.104
  MH41                    2.76     2.150      0  16:16       0.055    12.396
  MH42                    3.31     1.291      0  16:24       0.043     9.945
  MH43                    3.39     0.889      0  16:27       0.030     7.896
  MH44                    4.05     0.704      0  16:23       0.030     7.228
  MH45                    1.69     0.678      1  09:00       0.008     3.504
  MH46                    0.61     1.224      1  09:00       0.002     0.753
  MH47                    0.01     1.961      1  09:00       0.000     0.005
  MH5                     1.15     0.698      0  16:16       0.007     5.850
  MH50                    0.67     1.796      0  16:17       0.012     3.905
  MH51                    2.47     4.536      1  09:00       0.066    12.539
  MH52                    0.82     1.216      0  16:15       0.012     9.004
  MH52A                   0.45     2.752      0  16:15       0.012     9.049
  MH52B                   0.57     2.740      0  16:15       0.015    12.493
  MH52W                   0.82     2.135      0  16:15       0.018    12.054
  MH53                    5.02     8.201      1  09:45       0.149    51.320
  MH54                    6.75     2.736      1  09:46       0.104    21.432
  MH55                    8.73     1.153      1  09:48       0.072    13.735
  MH56                    0.89     1.281      0  16:09       0.016     6.310
  MH57                    0.63     0.997      0  16:20       0.009     3.355
  MH58                    6.89     1.490      1  09:01       0.071     9.453
  MH59                    1.96     0.637      0  16:14       0.014     4.634
  MH6                     0.67     0.347      0  16:15       0.002     1.865
  MH60                    5.20     0.720      2  02:20       0.017     3.486
  MH61                    5.19     1.510      1  18:24       0.011     1.523
  MH65                    0.83     0.172      2  06:50       0.002     0.482
  MH66                    0.81     0.222      2  06:52       0.002     0.710
  MH68                    0.19     0.314      2  07:01       0.001     0.493
  MH69                    0.15     0.386      2  07:01       0.001     0.420
  MH7                     2.39     1.281      0  16:16       0.029    10.537
  MH70                    0.56     1.069      2  06:51       0.007     2.103
  MH71                    0.21     0.433      2  07:00       0.002     2.041
  MH72                    0.51     1.837      2  06:50       0.009     2.484
  MH73                    0.19     0.500      2  07:00       0.002     0.764
  MH8                     2.03     1.562      0  16:19       0.031     9.286
  MH87A                   0.55     1.580      2  07:00       0.010     9.690
  MH87W                   0.10     1.521      2  07:01       0.001     1.428
  MH9                     3.03     1.563      0  16:17       0.049    12.157
  MH93                    1.20     4.662      1  09:46       0.005     1.025
  MH98                    0.01     6.872      1  09:45       0.000     0.000
  MH99                    0.01     5.116      1  09:44       0.000     0.000
  PS-ARCH                 2.35     9.115      2  05:02       0.420     0.000
  
  
  **********************
  Storage Volume Summary
  **********************
  
  ------------------------------------------------------------------------------------------------
                         Average    Avg   Evap  Exfil     Maximum    Max    Time of Max    Maximum
                          Volume   Pcnt   Pcnt   Pcnt      Volume   Pcnt     Occurrence    Outflow
  Storage Unit          1000 ftł   Full   Loss   Loss    1000 ftł   Full    days hr:min        MGD
  ------------------------------------------------------------------------------------------------
  PS-ARCH                  0.014   11.1    0.0    0.0       0.124  100.0       0  16:11      7.130
  THR_WET_WELL             0.009    5.3    0.0    0.0       0.039   24.0       2  07:00      0.908
  WWTP_WET_WELL            0.018    4.7    0.0    0.0       0.096   24.6       1  10:30     44.379
  
  
  ***********************
  Outfall Loading Summary
  ***********************
  
  -----------------------------------------------------------
                         Flow       Avg       Max       Total
                         Freq      Flow      Flow      Volume
  Outfall Node           Pcnt       MGD       MGD    10^6 gal
  -----------------------------------------------------------
  MH10R                 14.91     4.167    11.141       1.365
  MH117R                26.11     2.898     8.445       1.605
  MH117R2                0.00     0.000     0.000       0.000
  MH122R                13.09     0.574     3.839       0.162
  MH135R                 0.00     0.000     0.000       0.000
  MH1R                   5.89     1.855     3.339       0.233
  MH36R                 49.68     1.424     7.154       1.645
  MH48R                 53.78     0.850    13.070       1.018
  MH52R                 54.21     3.221    25.317       3.841
  MH63BR                48.55     2.305    13.872       2.490
  MH64BR                50.09     1.471     8.028       1.647
  MH6R                   7.13     2.529     3.964       0.390
  MH75R                  6.55     3.856    13.235       0.536
  MH81R                 11.47     0.161     3.258       0.039
  MH87R                 27.76     0.694     4.461       0.414
  MH91R                  5.40     0.760     1.356       0.088
  MH92R                  0.86     0.689     2.530       0.011
  MH92R2                17.99     0.546     4.252       0.212
  OFALL-10              81.80     0.109     1.085       0.217
  OUTFALL_WWTP         100.00    11.013    23.203      27.750
  -----------------------------------------------------------
  System                28.76    39.122   120.601      43.663
  
  
  ********************
  Link Flow Summary
  ********************
  
  -----------------------------------------------------------------------------
                                 Maximum  Time of Max   Maximum    Max/    Max/
                                  |Flow|   Occurrence   |Veloc|    Full    Full
  Link                 Type          MGD  days hr:min    ft/sec    Flow   Depth
  -----------------------------------------------------------------------------
  CDT-13               CONDUIT    37.138     0  16:15     18.29    1.25    1.00
  MH-WWTP_MH156        CONDUIT    23.263     1  10:32     10.07    0.30    0.68
  MH100A_MH100         CONDUIT    16.104     2  06:58      3.72    0.66    1.00
  MH100A_MH101A        CONDUIT    15.302     2  06:58      3.73    1.55    1.00
  MH101A_MH107A        CONDUIT    14.536     1  09:47      4.75    1.30    1.00
  MH103_MH104          CONDUIT    15.463     0  16:16     30.46    3.93    1.00
  MH104_MH105          CONDUIT    15.065     0  16:18     18.99    1.48    1.00
  MH107A_MH105         CONDUIT    15.117     0  16:20      7.45    2.87    1.00
  MH107_MH108A         CONDUIT    24.332     1  09:47      6.09    0.68    1.00
  MH108A_MH109         CONDUIT    24.319     1  09:47      5.32    1.52    1.00
  MH109_MH110          CONDUIT    23.838     0  16:17      5.22    1.08    1.00
  MH10A_MH10W          CONDUIT     0.160     0  17:00      0.65    0.01    0.26
  MH10W_MH10R          CONDUIT    11.141     0  16:35     15.79    0.16    0.27
  MH10_MH11            CONDUIT    12.714     2  05:03     16.03    5.90    1.00
  MH110_MH111          CONDUIT    23.681     0  16:18      5.18    1.65    1.00
  MH111_MH112          CONDUIT    23.681     0  16:19      5.18    1.05    1.00
  MH112_MH113          CONDUIT    23.599     0  16:19      5.17    1.23    1.00
  MH113_MH115          CONDUIT    23.544     0  16:20      5.15    1.07    1.00
  MH115_MH116          CONDUIT    23.519     0  16:22      5.15    1.23    1.00
  MH116_MH117          CONDUIT    23.605     0  16:21      5.17    1.30    1.00
  MH117D_MH118         CONDUIT    15.157     0  16:22      5.21    0.62    0.61
  MH117W2_MH117R2      CONDUIT     0.000     0  00:00      0.00    0.00    0.00
  MH117W_MH117R        CONDUIT     8.445     0  16:22     11.22    0.11    0.22
  MH118A_MH118         CONDUIT    15.334     1  05:15      4.93    2.85    0.65
  MH118_MH119          CONDUIT    15.331     1  05:16      4.95    0.75    0.64
  MH119_MH120          CONDUIT    15.328     1  05:16      5.07    0.75    0.63
  MH11_MH12            CONDUIT    14.128     2  05:01     17.81    7.17    1.00
  MH120_MH121          CONDUIT    15.326     1  05:17      6.63    0.75    0.51
  MH121_MH128          CONDUIT    16.829     2  07:06      6.80    0.32    0.53
  MH122A_MH122         CONDUIT     5.482     2  07:06     10.80    3.86    1.00
  MH122B_MH122A        CONDUIT     6.443     2  07:02     12.69    4.75    1.00
  MH122W_MH123         CONDUIT     2.787     1  10:18      5.51    3.02    1.00
  MH122_MH122R         CONDUIT     3.839     2  07:06      7.61    1.18    0.98
  MH123_MH124          CONDUIT     2.066     1  10:19      4.84    2.26    1.00
  MH124_MH125          CONDUIT     1.693     1  10:20      4.18    1.96    1.00
  MH125_MH126          CONDUIT     1.647     2  07:06      3.98    1.80    0.78
  MH126_MH127          CONDUIT     1.645     2  07:07      5.09    0.42    0.46
  MH127_MH121          CONDUIT     1.644     2  07:08      4.04    0.43    0.73
  MH128_MH129          CONDUIT    16.821     2  07:07      5.49    0.77    0.64
  MH129_MH130          CONDUIT    16.800     2  07:07      5.07    0.68    0.69
  MH12_PS-ARCH         CONDUIT    13.091     2  05:02     16.51    6.50    1.00
  MH130_MH131          CONDUIT    16.786     1  05:19      4.80    0.93    0.72
  MH131_MH132          CONDUIT    16.782     1  05:20      4.95    0.82    0.70
  MH132_MH133          CONDUIT    16.773     1  05:21      5.15    0.84    0.75
  MH133_MH134          CONDUIT    16.680     1  05:21      5.72    0.78    0.85
  MH134_MH136          CONDUIT    16.587     1  10:54      4.69    0.60    0.95
  MH135A_MH135W        CONDUIT     0.319     1  10:45      3.47    1.81    0.17
[...]
  MH6B_MH6A               1.00   0.00  0.00  0.00  0.31  0.69  0.00  0.00  0.12  0.00
  MH6W_MH6R               1.00   0.95  0.00  0.00  0.01  0.04  0.00  0.00  0.50  0.00
  MH6_MH5                 1.00   0.00  0.00  0.00  0.50  0.50  0.00  0.00  0.91  0.00
  MH70_MH72               1.00   0.00  0.00  0.00  1.00  0.00  0.00  0.00  0.13  0.00
  MH71_MH72               1.25   0.00  0.10  0.00  0.87  0.03  0.00  0.00  0.88  0.00
  MH72_MH73               1.00   0.00  0.00  0.00  1.00  0.00  0.00  0.00  0.77  0.00
  MH73_MH74               1.00   0.00  0.00  0.00  1.00  0.00  0.00  0.00  0.67  0.00
  MH74_MH76               1.00   0.00  0.00  0.00  1.00  0.00  0.00  0.00  0.04  0.00
  MH75A_MH75              2.89   0.00  0.00  0.00  0.14  0.20  0.00  0.66  0.26  0.00
  MH75_MH74               1.00   0.00  0.00  0.00  1.00  0.00  0.00  0.00  0.85  0.00
  MH75_MH75R              3.73   0.96  0.00  0.00  0.00  0.04  0.00  0.00  0.38  0.00
  MH76_MH77               1.00   0.00  0.00  0.00  1.00  0.00  0.00  0.00  0.46  0.00
  MH77_MH78               1.00   0.00  0.00  0.00  1.00  0.00  0.00  0.00  0.33  0.00
  MH78_MH79               1.00   0.00  0.00  0.00  1.00  0.00  0.00  0.00  0.44  0.00
  MH79_MH80               1.00   0.00  0.00  0.00  1.00  0.00  0.00  0.00  0.37  0.00
  MH7_MH8                 1.00   0.00  0.00  0.00  1.00  0.00  0.00  0.00  0.54  0.00
  MH80_MH84               1.00   0.00  0.00  0.00  1.00  0.00  0.00  0.00  0.38  0.00
  MH81A_MH81W             2.02   0.10  0.00  0.00  0.00  0.00  0.00  0.90  0.00  0.00
  MH81W_MH81R             1.00   0.91  0.00  0.00  0.00  0.09  0.00  0.00  0.01  0.00
  MH81_MH84               1.00   0.00  0.11  0.00  0.88  0.01  0.00  0.00  0.89  0.00
  MH82_MH83               1.01   0.95  0.05  0.00  0.00  0.00  0.00  0.00  0.33  0.00
  MH83_MH85               1.00   0.00  0.95  0.00  0.05  0.00  0.00  0.00  0.79  0.00
  MH84_MH85               1.00   0.00  0.00  0.00  1.00  0.00  0.00  0.00  0.00  0.00
  MH85_MH86               1.00   0.00  0.00  0.00  1.00  0.00  0.00  0.00  0.61  0.00
  MH86_MH87               1.00   0.00  0.00  0.00  1.00  0.00  0.00  0.00  0.02  0.00
  MH87A_MH87W             1.35   0.10  0.00  0.00  0.02  0.01  0.00  0.87  0.01  0.00
  MH87W_MH87R             1.22   0.79  0.00  0.00  0.02  0.19  0.00  0.00  0.04  0.00
  MH87_MH88               1.00   0.00  0.00  0.00  1.00  0.00  0.00  0.00  0.37  0.00
  MH88_MH89               1.00   0.00  0.00  0.00  1.00  0.00  0.00  0.00  0.25  0.00
  MH89_MH90               1.00   0.00  0.00  0.00  1.00  0.00  0.00  0.00  0.00  0.00
  MH8_MH9                 1.00   0.00  0.00  0.00  1.00  0.00  0.00  0.00  0.78  0.00
  MH90_MH91               1.00   0.00  0.00  0.00  1.00  0.00  0.00  0.00  0.63  0.00
  MH91A_MH91W             1.00   0.00  0.00  0.00  0.18  0.82  0.00  0.00  0.03  0.00
  MH91W_MH91R             1.00   0.97  0.00  0.00  0.02  0.01  0.00  0.00  0.01  0.00
  MH91_MH92               1.00   0.00  0.00  0.00  1.00  0.00  0.00  0.00  0.30  0.00
  MH92A_MH92W             1.15   0.00  0.00  0.00  0.26  0.74  0.00  0.00  0.47  0.00
  MH92B_MH92              1.34   0.19  0.76  0.00  0.05  0.00  0.00  0.00  0.00  0.00
  MH92W_MH92R2            1.37   0.88  0.00  0.00  0.00  0.12  0.00  0.00  0.03  0.00
  MH92_MH92R              2.26   1.00  0.00  0.00  0.00  0.00  0.00  0.00  0.00  0.00
  MH92_MH93               1.22   0.00  0.00  0.00  1.00  0.00  0.00  0.00  0.15  0.00
  MH93_MH94               1.00   0.00  0.00  0.00  1.00  0.00  0.00  0.00  0.00  0.00
  MH94_MH95               1.20   0.00  0.00  0.00  1.00  0.00  0.00  0.00  0.01  0.00
  MH95_MH96               1.00   0.00  0.00  0.00  1.00  0.00  0.00  0.00  0.27  0.00
  MH96_MH97               1.00   0.00  0.00  0.00  1.00  0.00  0.00  0.00  0.00  0.00
  MH97_MH98               1.00   0.00  0.00  0.00  1.00  0.00  0.00  0.00  0.39  0.00
  MH98_MH99               1.00   0.00  0.00  0.00  1.00  0.00  0.00  0.00  0.12  0.00
  MH99_MH100              1.00   0.00  0.00  0.00  1.00  0.00  0.00  0.00  0.44  0.00
  MH9_MH10                1.00   0.00  0.00  0.00  1.00  0.00  0.00  0.00  0.33  0.00
  TEST_OUTFALL            1.00   0.00  0.00  0.00  0.00  0.00  0.00  1.00  0.00  0.00
  
  
  *************************
  Conduit Surcharge Summary
  *************************
  
  ----------------------------------------------------------------------------
                                                           Hours        Hours 
                         --------- Hours Full --------   Above Full   Capacity
  Conduit                Both Ends  Upstream  Dnstream   Normal Flow   Limited
  ----------------------------------------------------------------------------
  CDT-13                      1.05      1.05      1.57      0.15         0.15
  MH-WWTP_MH156               0.01      0.01     81.75      0.01         0.01
  MH100A_MH100                8.44      8.44      8.62      0.01         0.75
  MH100A_MH101A               7.99      8.62      8.03     12.45         6.53
  MH101A_MH107A               7.82      8.03      7.87      7.21         4.25
  MH103_MH104                 6.17     13.55      6.17     13.51         6.17
  MH104_MH105                 5.83      5.83     25.73      2.48         2.49
  MH107A_MH105               10.24     10.24     13.15      9.00         0.01
  MH107_MH108A                7.87      7.87     13.30      0.01         0.01
  MH108A_MH109               13.30     13.30     13.57      6.55         6.26
  MH109_MH110                13.57     13.57     15.00      1.24         1.29
  MH10_MH11                   6.21      6.21      7.06      3.75         0.01
  MH110_MH111                15.00     15.00     15.32      9.72         9.09
  MH111_MH112                15.32     15.32     16.63      0.93         0.96
  MH112_MH113                16.63     16.63     18.84      4.15         4.11
  MH113_MH115                18.84     18.84     22.77      1.44         1.51
  MH115_MH116                22.77     22.77     27.21      4.20         4.17
  MH116_MH117                27.21     27.21     32.67      4.89         4.89
  MH118A_MH118                0.01      0.01      0.01     42.22         0.01
  MH11_MH12                   9.82      9.82     10.11      4.37         0.86
  MH122A_MH122                0.33      2.59      0.33      3.89         0.33
  MH122B_MH122A               2.59      3.12      2.59      4.63         2.59
  MH122W_MH123                6.97      7.17      6.99      8.23         6.93
  MH122_MH122R                0.01      0.24      0.01      0.32         0.01
  MH123_MH124                 6.76      6.99      6.76      8.38         6.74
  MH124_MH125                 6.16      6.76      6.16      9.33         6.16
  MH125_MH126                 0.01      6.16      0.01      8.25         0.01
  MH12_PS-ARCH                4.29     10.11      4.29     11.63         4.22
  MH134_MH136                 0.01      0.01      1.71      0.01         0.01
  MH135A_MH135W               0.01      0.01      0.01      0.27         0.01
  MH135_MH136                 0.01      0.01     37.26      0.01         0.01
  MH136_MH137                 1.45      1.71      1.45     12.35         1.45
  MH137_MH138                 0.71      1.45      0.71      8.40         0.71
  MH138_MH139                 0.18      0.71      0.18     10.45         0.18
  MH139_MH140                 0.01      0.18      0.01      8.36         0.01
  MH13P2_MH13                14.17     14.17     71.29      0.01         0.01
  MH13P_MH13P2               81.75     81.75     81.75     57.77        59.72
  MH13_MH14                  14.66     15.36     14.91      8.72         6.61
  MH140_MH141                 0.01      0.01      0.01      9.69         0.01
  MH141_MH142                 0.01      0.01      0.01      8.56         0.01
  MH142_MH143                 0.01      0.01      0.01     11.91         0.01
  MH143_MH144                 0.01      0.01      0.01      4.72         0.01
  MH144_MH145                 0.01      0.01      0.01      9.08         0.01
  MH145_MH146                 0.01      0.01      0.01      3.78         0.01
  MH146_MH147                 0.01      0.01      0.01     13.20         0.01
  MH147_MH148                 0.01      0.01      0.01      9.18         0.01
  MH148_MH149                 0.01      0.01      0.01     14.25         0.01
  MH14_MH15                  14.90     14.91     15.33      3.30         3.07
  MH150_MH155                 0.01      0.01      0.01      5.13         0.01
  MH151_MH150                11.00     11.58     50.15      8.12         7.46
  MH152_MH151                11.57     14.55     11.58     16.27        11.56
  MH153_MH152                13.37     13.39     14.55     13.42        13.12
  MH154_MH153                13.38     13.93     13.38     15.24        13.34
  MH155_MH155GC               0.01      0.01      0.01     30.72         0.01
  MH15_MH16                  15.31     15.33     15.71      3.19         2.69
  MH16_MH17                  15.71     15.71     16.09      1.19         1.07
  MH17_MH18                  16.04     16.09     16.24      3.95         3.18
  MH18_MH19                  16.19     16.24     16.49      3.24         2.81
  MH19_MH20                  16.45     16.48     16.88      1.43         1.32
  MH1_MH2                     0.22      0.22      3.77      0.01         0.01
  MH200P_MH155GC              0.26      0.26     71.00     41.24         0.01
  MH200_MH155                 0.39      0.39     30.34      0.11         0.12
  MH201_MH200                 0.39      0.83      0.39     14.56         0.39
  MH201_THR_WET_WELL          9.79      9.79     71.97      0.01         0.01
  MH201_THR_WET_WELL_2        0.34      0.34     47.42      0.01         0.01
  MH202_MH201                 0.46      1.01      0.46      2.44         0.46
  MH20_MH21                  16.84     16.88     17.16      1.42         1.29
  MH21_MH22                  17.16     17.16     17.48      1.45         1.35
  MH22_MH23                  17.48     17.48     17.72      2.25         1.63
  MH23_MH24                  17.72     17.72     17.89      5.29         3.89
  MH24_MH25                  17.89     17.89     20.03      3.70         3.67
  MH25_MH26                  17.56     20.03     17.56     19.40        14.93
  MH26A_MH27                 17.37     17.37     18.20      3.94         3.39
  MH26_MH26A                 17.35     17.56     17.37     16.45        13.74
  MH27_MH28                  18.07     18.20     18.07     19.39        18.06
  MH28_MH29                  17.46     18.07     17.46     19.44        17.46
  MH29_MH30                  17.25     17.46     17.25     18.82        17.25
  MH2_MH4                     4.34      4.34      6.34      1.80         0.01
  MH30_MH31                  13.91     17.25     13.91     18.82        13.91
  MH31_MH32                  13.64     13.91     13.64     14.38        13.03
  MH32_MH34                  13.28     13.64     13.30     14.04        12.47
  MH34_MH35                  13.17     13.30     13.19     13.49        12.22
  MH35_MH36                   2.16     13.19      2.19     13.85         1.29
  MH36B_MH36W                 5.81      9.07      5.85      9.32         4.63
  MH36W_MH36R                 3.33      4.63      3.33      4.84         3.33
  MH36_MH37                  25.93     26.14     26.21     25.27        24.22
  MH37_MH38                  26.15     26.21     27.43     24.47        24.17
  MH38_MH41                   4.39     27.43      4.39     30.67         3.90
  MH39W_MH40                  7.32      7.32     25.50      0.09         0.08
  MH3_MH4                     2.81      2.81      4.13      1.45         1.45
  MH40_MH41                  25.44     25.50     26.45      3.25         3.03
  MH41_MH42                  26.40     26.45     27.36     23.06        22.63
  MH42_MH43                  26.66     27.36     26.70     29.21        26.60
  MH43_MH44                  25.94     26.70     25.94     29.38        25.94
  MH44_MH45                  25.56     25.94     26.88     28.80        25.55
  MH45_MH46                  23.59     26.88     23.59     29.83        23.58
  MH46_MH47                   7.70     23.59      7.71     29.50         7.70
  MH47_MH50                  33.05     33.05     33.45     30.94        30.89
  MH48A_MH48W                 0.01      0.03      0.01      0.17         0.01
  MH48_MH49                   3.95      3.95      6.73      0.01         0.01
  MH49_MH47                   9.06      9.06     35.62      0.01         0.01
  MH4_MH7                     7.19      7.19      7.54      2.68         2.62
  MH50_MH51                  24.23     33.45     24.34     33.63        23.35
  MH51_MH56                  30.56     30.56     31.21      0.51         0.48
  MH52A_MH52W                 1.57      1.57      2.06      0.55         0.56
  MH52W_MH52R                 2.35      2.35      2.53      2.53         2.34
  MH52_MH51                  27.48     27.48     30.56      0.07         0.08
  MH53_MH54                   6.99      6.99     11.82      3.69         3.68
  MH54_MH55                  11.82     11.82     28.87      2.59         2.58
  MH55_MH58                  28.87     28.87     40.43      6.12         6.12
  MH56_MH57                  30.98     31.21     31.58     19.18        18.49
  MH57_MH58                  31.40     31.58     32.44     19.02        18.16
  MH58_MH59                  31.96     32.44     32.22     33.66        31.73
  MH59_MH60                  31.03     32.22     31.29     33.49        30.54
  MH5_MH4                     6.75      6.75      7.37      2.56         0.01
  MH60_MH61                  31.26     31.29     33.95     11.90        11.78
  MH61_MH62                  33.95     33.95     36.91      7.43         7.44
  MH62A_MH62B                36.22     36.22     36.28      0.59         4.68
  MH62B_MH62C                36.28     36.28     38.52      0.01         0.01
  MH62C_MH63A                38.52     38.52     39.30      1.26         1.33
  MH62D_MH62C                26.59     26.59     39.36      0.01         0.01
  MH62_MH62A                 36.91     36.91     37.02     18.85        18.14
  MH63A_MH63B                40.02     40.02     41.11      0.44         0.47
  MH63B_MH64                 41.11     41.11     42.66      0.03         0.03
  MH64B_MH64C                33.67     33.67     45.76      0.01         0.01
  MH64C_MH65                 41.84     46.36     41.84     48.00        41.84
  MH64E_MH64B                 0.01      0.01     32.36      0.01         0.01
  MH64_MH64C                 42.65     42.65     45.76      0.01         0.01
  MH65_MH66                  41.79     41.84     42.34     35.94        35.13
  MH66_MH67                  41.44     42.34     41.44     38.45        36.30
  MH67_MH68                  37.00     41.44     37.00     40.96        33.51
  MH68_MH69                  37.00     37.00     39.47      0.03         0.05
  MH69_MH70                  37.24     39.47     37.28     34.40        30.15
  MH6A_MH6W                   0.01      0.01      0.65      0.01         0.01
  MH6W_MH6R                   0.01      0.75      0.01      1.15         0.01
  MH6_MH5                     5.24      5.24      6.75      2.03         0.01
  MH70_MH72                  15.70     37.28     15.80     36.87         9.70
  MH71_MH72                   0.91      0.91     13.12      0.01         0.01
  MH72_MH73                  13.12     13.12     16.47      2.29         2.30
  MH73_MH74                  16.47     16.47     18.31      7.15         7.09
  MH74_MH76                  15.68     18.31     15.68     27.43        15.47
  MH75A_MH75                  1.06      1.06      8.71      0.01         0.01
  MH75_MH74                   9.42      9.42     18.31      0.01         0.01
  MH76_MH77                  14.75     15.68     14.75     23.12        14.34
  MH77_MH78                  13.93     14.75     13.93     23.28        13.53
  MH78_MH79                  12.15     13.93     12.15     23.75        11.77
  MH79_MH80                  10.57     12.15     10.57     23.96        10.20
  MH7_MH8                     7.12      7.54      7.17      6.43         4.97
  MH80_MH84                   9.20     10.57      9.20     24.43         8.84
  MH81A_MH81W                 0.03      0.03      0.05      0.05         0.03
  MH81_MH84                   0.01      0.01     47.63      0.01         0.01
  MH82_MH83                   0.01      0.01      0.08      0.01         0.01
  MH83_MH85                   0.23      0.23     65.66      0.01         0.01
  MH84_MH85                   8.26      9.20      8.26     27.51         8.07
  MH85_MH86                   6.28      6.28      8.51      0.01         0.01
  MH86_MH87                   6.37      8.51      6.37     29.09         6.29
  MH87A_MH87W                 1.16      1.19      1.44      1.01         0.96
  MH87W_MH87R                 1.34      1.34      1.54      1.54         1.34
  MH87_MH88                   6.30      6.37      6.55      2.36         1.17
  MH88_MH89                   5.96      6.55      5.96     20.43         5.05
  MH89_MH90                   5.71      5.96      5.71     25.64         5.14
  MH8_MH9                     6.86      7.17      6.92      6.43         4.88
  MH90_MH91                   5.71      5.71      6.46      0.32         0.25
  MH91A_MH91W                 0.01      0.01      1.73      0.01         0.01
  MH91W_MH91R                 0.01      1.38      0.01      1.57         0.01
  MH91_MH92                   5.47      5.48      5.65      0.14         0.11
  MH92B_MH92                  2.15      2.15     66.36      0.01         0.01
  MH92_MH93                   5.65      5.65      5.71      0.08         0.07
  MH93_MH94                   5.64      5.71      5.64     34.04         5.14
  MH94_MH95                   5.64      5.65      5.67      0.28         0.94
  MH95_MH96                   5.66      5.67      5.74      0.29         0.26
  MH96_MH97                   5.70      5.74      6.49      0.38         0.11
  MH97_MH98                   6.49      6.49      7.11      0.02         0.01
  MH98_MH99                   7.07      7.11      7.29      1.57         0.87
  MH99_MH100                  7.29      7.29      8.44      0.02         0.01
  MH9_MH10                    6.13      6.92      6.21      6.08         3.57
  
  
  ***************
  Pumping Summary
  ***************
  
  ---------------------------------------------------------------------------------------------------------
                                                  Min       Avg       Max     Total     Power    % Time Off
                        Percent   Number of      Flow      Flow      Flow    Volume     Usage    Pump Curve
  Pump                 Utilized   Start-Ups       MGD       MGD       MGD  10^6 gal     Kw-hr    Low   High
  ---------------------------------------------------------------------------------------------------------
  PS-ARCH                 20.99        4015      0.00      2.48      3.56     1.666    247.87    0.0   53.7
  PS-ARCH2                11.83        1886      0.00      2.55      3.56     1.028    179.82    0.0   24.6
  THR_PUMP                50.46         161      0.00      0.33      0.50     0.576     21.66    0.0    0.0
  THR_PUMP2               38.90          13      0.00      0.31      0.45     0.410     15.82    0.0    0.0
  WWTP_PUMP               45.14       10671      0.00     11.41     14.79    14.902   1863.59    0.0    0.0
  WWTP_PUMP2              20.23       10616      0.00     12.75     14.79     8.575   1080.11    0.0    0.0
  WWTP_PUMP3               8.69        4963      0.00     12.98     14.79     3.800    485.98    0.0    0.0
  

  Analysis begun on:  Tue Jun 23 21:35:06 2026
  Analysis ended on:  Tue Jun 23 21:35:14 2026
  Total elapsed time: 00:00:08