
  EPA STORM WATER MANAGEMENT MODEL - VERSION 5.2 (Build 5.2.4)
  ------------------------------------------------------------

  WARNING 11: non-matching attributes in Control Rule RULE-21
  WARNING 11: non-matching attributes in Control Rule RULE-27
  
  ERROR 209: undefined object 8040 at line 494 of [CONTROL] section:
  THEN WEIR 8040 SETTING = PID 3.000000	3.000000	3.000000


  Analysis begun on:  Fri Mar  6 15:35:11 2026
  Analysis ended on:  Fri Mar  6 15:35:11 2026
  Total elapsed time: < 1 sec