
  EPA STORM WATER MANAGEMENT MODEL - VERSION 5.2 (Build 5.2.4)
  ------------------------------------------------------------

  Example 1 of Extran Manual 
  
  ****************
  Analysis Options
  ****************
  Flow Units ............... CFS
  Process Models:
    Rainfall/Runoff ........ NO
    RDII ................... NO
    Snowmelt ............... NO
    Groundwater ............ NO
    Flow Routing ........... YES
    Ponding Allowed ........ NO
    Water Quality .......... YES
  Flow Routing Method ...... DYNWAVE
  Surcharge Method ......... EXTRAN
  Starting Date ............ 01/01/2002 00:00:00
  Ending Date .............. 01/03/2002 08:00:00
  Antecedent Dry Days ...... 0.0
  Report Time Step ......... 00:15:00
  Routing Time Step ........ 20.00 sec
  Variable Time Step ....... NO
  Maximum Trials ........... 8
  Number of Threads ........ 1
  Head Tolerance ........... 0.005000 ft
  
  
  **************************        Volume        Volume
  Flow Routing Continuity        acre-feet      10^6 gal
  **************************     ---------     ---------
  Dry Weather Inflow .......        46.277        15.080
  Wet Weather Inflow .......         0.000         0.000
  Groundwater Inflow .......         0.000         0.000
  RDII Inflow ..............         0.000         0.000
  External Inflow ..........        33.470        10.907
  External Outflow .........        75.840        24.714
  Flooding Loss ............         2.608         0.850
  Evaporation Loss .........         0.000         0.000
  Exfiltration Loss ........         0.000         0.000
  Initial Stored Volume ....         0.000         0.000
  Final Stored Volume ......         1.440         0.469
  Continuity Error (%) .....        -0.177
  
  
  **************************           TSS
  Quality Routing Continuity           lbs
  **************************    ----------
  Dry Weather Inflow .......     12575.658
  Wet Weather Inflow .......         0.000
  Groundwater Inflow .......         0.000
  RDII Inflow ..............         0.000
  External Inflow ..........         0.000
  External Outflow .........     12068.118
  Flooding Loss ............         0.000
  Exfiltration Loss ........         0.000
  Mass Reacted .............         0.000
  Initial Stored Mass ......         0.000
  Final Stored Mass ........       373.539
  Continuity Error (%) .....         1.066
  
  
  *************************
  Highest Continuity Errors
  *************************
  Node 80608 (1.39%)
  
  
  ********************************
  Highest Flow Instability Indexes
  ********************************
  All links are stable.
  
  
  *********************************
  Most Frequent Nonconverging Nodes
  *********************************
  Node 10208 (0.56%)
  Node 82309 (0.51%)
  Node 80608 (0.30%)
  Node 80408 (0.10%)
  Node 81009 (0.01%)
  
  
  *************************
  Routing Time Step Summary
  *************************
  Minimum Time Step           :    20.00 sec
  Average Time Step           :    20.00 sec
  Maximum Time Step           :    20.00 sec
  % of Time in Steady State   :     0.00
  Average Iterations per Step :     2.05
  % of Steps Not Converging   :     0.56
  
  
  ******************
  Node Depth Summary
  ******************
  
  ---------------------------------------------------------------------------------
                                 Average  Maximum  Maximum  Time of Max    Reported
                                   Depth    Depth      HGL   Occurrence   Max Depth
  Node                 Type         Feet     Feet     Feet  days hr:min        Feet
  ---------------------------------------------------------------------------------
  80408                JUNCTION     0.59    13.40   138.00     0  00:38       12.75
  80608                JUNCTION     0.80    16.70   135.00     0  00:38       16.70
  81009                JUNCTION     1.19     3.23   131.43     0  00:30        3.23
  81309                JUNCTION     1.31     3.53   121.03     0  00:59        3.53
  82309                JUNCTION     1.11    22.33   134.63     0  00:38       21.46
  10309                JUNCTION     1.20     2.84   104.44     0  01:46        2.84
  15009                JUNCTION     1.14     2.71   114.21     0  01:32        2.71
  16109                JUNCTION     0.53     2.98   105.78     0  01:46        2.98
  10208                OUTFALL      1.02     2.61    92.51     0  01:46        2.61
  16009                STORAGE      1.27     3.03   105.03     0  01:40        3.03
  
  
  *******************
  Node Inflow Summary
  *******************
  
  -------------------------------------------------------------------------------------------------
                                  Maximum  Maximum                  Lateral       Total        Flow
                                  Lateral    Total  Time of Max      Inflow      Inflow     Balance
                                   Inflow   Inflow   Occurrence      Volume      Volume       Error
  Node                 Type           CFS      CFS  days hr:min    10^6 gal    10^6 gal     Percent
  -------------------------------------------------------------------------------------------------
  80408                JUNCTION     45.00    45.00     0  00:15        3.64        3.64      -0.317
  80608                JUNCTION      0.00    46.83     0  00:22           0        3.64       1.406
  81009                JUNCTION     60.00    60.00     0  00:15        19.1        19.1       0.214
  81309                JUNCTION      0.00    64.33     0  00:38           0        19.1       0.601
  82309                JUNCTION     40.00    83.75     0  00:32        3.23        5.98      -0.886
  10309                JUNCTION      0.00   132.50     0  01:38           0        24.8       0.282
  15009                JUNCTION      0.00    60.91     0  01:10           0          19       0.522
  16109                JUNCTION      0.00    72.15     0  01:46           0        6.03       0.445
  10208                OUTFALL       0.00   132.44     0  01:46           0        24.7       0.000
  16009                STORAGE       0.00   132.52     0  01:35           0        24.9       0.354
  
  
  **********************
  Node Surcharge Summary
  **********************
  
  Surcharging occurs when water rises above the top of the highest conduit.
  ---------------------------------------------------------------------
                                               Max. Height   Min. Depth
                                   Hours       Above Crown    Below Rim
  Node                 Type      Surcharged           Feet         Feet
  ---------------------------------------------------------------------
  80408                JUNCTION        2.45          9.400        0.000
  80608                JUNCTION        2.60         12.700        0.000
  82309                JUNCTION        2.74         16.131       20.369
  
  
  *********************
  Node Flooding Summary
  *********************
  
  Flooding refers to all water that overflows a node, whether it ponds or not.
  --------------------------------------------------------------------------
                                                             Total   Maximum
                                 Maximum   Time of Max       Flood    Ponded
                        Hours       Rate    Occurrence      Volume     Depth
  Node                 Flooded       CFS   days hr:min    10^6 gal      Feet
  --------------------------------------------------------------------------
  80408                   0.02     19.67      0  00:38       0.005     0.000
  80608                   2.41     18.47      0  00:39       0.845     0.000
  
  
  **********************
  Storage Volume Summary
  **********************
  
  ------------------------------------------------------------------------------------------------
                         Average    Avg   Evap  Exfil     Maximum    Max    Time of Max    Maximum
                          Volume   Pcnt   Pcnt   Pcnt      Volume   Pcnt     Occurrence    Outflow
  Storage Unit          1000 ftģ   Full   Loss   Loss    1000 ftģ   Full    days hr:min        CFS
  ------------------------------------------------------------------------------------------------
  16009                    0.025    7.1    0.0    0.0       0.060   16.8       0  01:40     132.50
  
  
  ***********************
  Outfall Loading Summary
  ***********************
  
  -------------------------------------------------------------------------
                         Flow       Avg       Max       Total         Total
                         Freq      Flow      Flow      Volume           TSS
  Outfall Node           Pcnt       CFS       CFS    10^6 gal           lbs
  -------------------------------------------------------------------------
  10208                 99.19     16.52    132.44      24.712     12068.742
  -------------------------------------------------------------------------
  System                99.19     16.52    132.44      24.712     12068.742
  
  
  ********************
  Link Flow Summary
  ********************
  
  -----------------------------------------------------------------------------
                                 Maximum  Time of Max   Maximum    Max/    Max/
                                  |Flow|   Occurrence   |Veloc|    Full    Full
  Link                 Type          CFS  days hr:min    ft/sec    Flow   Depth
  -----------------------------------------------------------------------------
  8040                 CONDUIT     46.83     0  00:22      7.13    0.64    1.00
  8060                 CONDUIT     43.75     0  00:32      4.78    0.82    1.00
  8100                 CONDUIT     64.33     0  00:38     47.70    0.82    0.72
  8130                 CONDUIT     60.91     0  01:10      5.67    0.86    0.69
  1030                 CONDUIT    132.44     0  01:46      5.95    0.04    0.30
  1570                 CONDUIT     60.41     0  01:32      4.83    0.49    0.52
  1600                 CONDUIT     72.15     0  01:55      5.23    0.49    0.50
  1630                 CONDUIT    132.50     0  01:38      5.95    0.06    0.33
  1602                 CONDUIT     72.15     0  01:46      4.33    1.66    0.80
  
  
  ***************************
  Flow Classification Summary
  ***************************
  
  -------------------------------------------------------------------------------------
                      Adjusted    ---------- Fraction of Time in Flow Class ---------- 
                       /Actual         Up    Down  Sub   Sup   Up    Down  Norm  Inlet 
  Conduit               Length    Dry  Dry   Dry   Crit  Crit  Crit  Crit  Ltd   Ctrl  
  -------------------------------------------------------------------------------------
  8040                    1.00   0.00  0.83  0.00  0.16  0.00  0.00  0.00  0.95  0.00
  8060                    1.00   0.00  0.00  0.00  0.06  0.00  0.00  0.94  0.01  0.00
  8100                    1.00   0.00  0.00  0.00  1.00  0.00  0.00  0.00  0.99  0.00
  8130                    1.00   0.00  0.00  0.00  1.00  0.00  0.00  0.00  0.02  0.00
  1030                    1.00   0.00  0.00  0.00  1.00  0.00  0.00  0.00  0.00  0.00
  1570                    1.00   0.00  0.00  0.00  1.00  0.00  0.00  0.00  0.99  0.00
  1600                    1.00   0.00  0.00  0.00  1.00  0.00  0.00  0.00  0.00  0.00
  1630                    1.00   0.00  0.00  0.00  1.00  0.00  0.00  0.00  0.00  0.00
  1602                    1.00   0.00  0.00  0.00  1.00  0.00  0.00  0.00  0.90  0.00
  
  
  *************************
  Conduit Surcharge Summary
  *************************
  
  ----------------------------------------------------------------------------
                                                           Hours        Hours 
                         --------- Hours Full --------   Above Full   Capacity
  Conduit                Both Ends  Upstream  Dnstream   Normal Flow   Limited
  ----------------------------------------------------------------------------
  8040                        2.45      2.45      2.60      0.01         0.01
  8060                        2.60      2.60      2.73      0.01         0.01
  1602                        0.01      2.98      0.01      2.89         0.01
  
  
  ***************************
  Link Pollutant Load Summary
  ***************************
  
  ----------------------------------
                                 TSS
  Link                           lbs
  ----------------------------------
  8040                         0.000
  8060                         0.000
  8100                     1.239e+04
  8130                     1.230e+04
  1030                     1.207e+04
  1570                     1.218e+04
  1600                         0.000
  1630                     1.217e+04
  1602                         0.000
  

  Analysis begun on:  Tue Jun 23 21:07:15 2026
  Analysis ended on:  Tue Jun 23 21:07:15 2026
  Total elapsed time: < 1 sec