
  EPA STORM WATER MANAGEMENT MODEL - VERSION 5.2 (Build 5.2.4)
  ------------------------------------------------------------

  Example 1 of Extran Manual 
  
  *************
  Element Count
  *************
  Number of rain gages ...... 0
  Number of subcatchments ... 0
  Number of nodes ........... 10
  Number of links ........... 9
  Number of pollutants ...... 0
  Number of land uses ....... 0
  
  
  ************
  Node Summary
  ************
                                           Invert      Max.    Ponded    External
  Name                 Type                 Elev.     Depth      Area    Inflow  
  -------------------------------------------------------------------------------
  80408                JUNCTION            124.60     13.40      10.0    Yes
  80608                JUNCTION            118.30     16.70      10.0
  81009                JUNCTION            128.20      8.80      10.0    Yes
  81309                JUNCTION            117.50     12.50      10.0
  82309                JUNCTION            112.30     42.70      10.0    Yes
  10309                JUNCTION            101.60      9.40      10.0
  15009                JUNCTION            102.50     13.50      10.0
  16009                JUNCTION            102.00     18.00      10.0
  16109                JUNCTION            101.00     22.20      10.0
  10208                OUTFALL              89.90      9.00       0.0
  
  
  ************
  Link Summary
  ************
  Name             From Node        To Node          Type            Length    %Slope Roughness
  ---------------------------------------------------------------------------------------------
  8040             80608            80408            CONDUIT         1800.0   -0.3500    0.0150
  8060             80608            82309            CONDUIT         2075.0    0.1831    0.0150
  8100             81009            81309            CONDUIT         5100.0    0.2098    0.0150
  8130             81309            15009            CONDUIT         3500.0    0.4286    0.0150
  1030             10309            10208            CONDUIT         4500.0    0.2600    0.0160
  1570             15009            16009            CONDUIT         5000.0    0.0100    0.0154
  1600             16109            16009            CONDUIT          500.0   -0.2000    0.0150
  1630             16009            10309            CONDUIT          300.0    0.1333    0.0150
  1602             82309            16109            CONDUIT         5000.0    0.2260    0.0340
  
  
  *********************
  Cross Section Summary
  *********************
                                        Full     Full     Hyd.     Max.   No. of     Full
  Conduit          Shape               Depth     Area     Rad.    Width  Barrels     Flow
  ---------------------------------------------------------------------------------------
  8040             CIRCULAR             4.00    12.57     1.00     4.00        1    73.65
  8060             CIRCULAR             4.00    12.57     1.00     4.00        1    53.27
  8100             CIRCULAR             4.50    15.90     1.12     4.50        1    78.06
  8130             CIRCULAR             4.50    15.90     1.12     4.50        1   111.57
  1030             TRAPEZOIDAL          9.00   243.00     4.27    54.00        1  3028.41
  1570             CIRCULAR             5.50    23.76     1.38     5.50        1    28.35
  1600             CIRCULAR             6.00    28.27     1.50     6.00        1   164.15
  1630             TRAPEZOIDAL          9.00   243.00     4.27    54.00        1  2313.27
  1602             CIRCULAR             5.00    19.63     1.25     5.00        1    47.34
  
  
  ****************
  Analysis Options
  ****************
  Flow Units ............... CFS
  Process Models:
    Rainfall/Runoff ........ NO
    RDII ................... NO
    Snowmelt ............... NO
    Groundwater ............ NO
    Flow Routing ........... YES
    Ponding Allowed ........ YES
    Water Quality .......... NO
  Flow Routing Method ...... DYNWAVE
  Surcharge Method ......... EXTRAN
  Starting Date ............ 01/01/2002 00:00:00
  Ending Date .............. 01/01/2002 06:00:00
  Antecedent Dry Days ...... 0.0
  Report Time Step ......... 00:01:00
  Routing Time Step ........ 5.00 sec
  Variable Time Step ....... NO
  Maximum Trials ........... 8
  Number of Threads ........ 1
  Head Tolerance ........... 0.005000 ft
  
  
  **************************        Volume        Volume
  Flow Routing Continuity        acre-feet      10^6 gal
  **************************     ---------     ---------
  Dry Weather Inflow .......         0.000         0.000
  Wet Weather Inflow .......         0.000         0.000
  Groundwater Inflow .......         0.000         0.000
  RDII Inflow ..............         0.000         0.000
  External Inflow ..........        23.589         7.687
  External Outflow .........        17.258         5.624
  Flooding Loss ............         0.000         0.000
  Evaporation Loss .........         0.000         0.000
  Exfiltration Loss ........         0.000         0.000
  Initial Stored Volume ....         6.276         2.045
  Final Stored Volume ......        17.805         5.802
  Continuity Error (%) .....       -17.407
  
  
  *************************
  Highest Continuity Errors
  *************************
  Node 81309 (30.67%)
  Node 15009 (22.60%)
  Node 10309 (6.50%)
  Node 16109 (3.26%)
  Node 80608 (1.47%)
  
  
  ********************************
  Highest Flow Instability Indexes
  ********************************
  Link 8060 (3)
  Link 8100 (2)
  
  
  *********************************
  Most Frequent Nonconverging Nodes
  *********************************
  Node 10208 (3.68%)
  Node 81009 (2.69%)
  Node 82309 (0.74%)
  Node 80608 (0.19%)
  Node 81309 (0.12%)
  
  
  *************************
  Routing Time Step Summary
  *************************
  Minimum Time Step           :     5.00 sec
  Average Time Step           :     5.00 sec
  Maximum Time Step           :     5.00 sec
  % of Time in Steady State   :     0.00
  Average Iterations per Step :     2.34
  % of Steps Not Converging   :     3.68
  
  
  ******************
  Node Depth Summary
  ******************
  
  ---------------------------------------------------------------------------------
                                 Average  Maximum  Maximum  Time of Max    Reported
                                   Depth    Depth      HGL   Occurrence   Max Depth
  Node                 Type         Feet     Feet     Feet  days hr:min        Feet
  ---------------------------------------------------------------------------------
  80408                JUNCTION     0.81     1.60   126.20     0  00:18        1.60
  80608                JUNCTION     1.67     4.72   123.02     0  02:38        4.72
  81009                JUNCTION     6.78    11.20   139.40     0  03:04       11.20
  81309                JUNCTION    15.08    21.89   139.39     0  03:13       21.89
  82309                JUNCTION     4.42    11.55   123.85     0  01:02       10.04
  10309                JUNCTION     1.72     2.16   103.76     0  03:03        2.16
  15009                JUNCTION     1.56     2.00   104.50     0  03:07        2.00
  16009                JUNCTION     1.67     2.36   104.36     0  03:00        2.36
  16109                JUNCTION     2.99     4.14   105.14     0  03:00        4.14
  10208                OUTFALL     13.10    13.10   103.00     0  00:00       13.10
  
  
  *******************
  Node Inflow Summary
  *******************
  
  -------------------------------------------------------------------------------------------------
                                  Maximum  Maximum                  Lateral       Total        Flow
                                  Lateral    Total  Time of Max      Inflow      Inflow     Balance
                                   Inflow   Inflow   Occurrence      Volume      Volume       Error
  Node                 Type           CFS      CFS  days hr:min    10^6 gal    10^6 gal     Percent
  -------------------------------------------------------------------------------------------------
  80408                JUNCTION     22.50    22.50     0  00:15        1.82        1.82       0.000
  80608                JUNCTION      0.00    23.49     0  00:23           0        1.82       1.489
  81009                JUNCTION     25.00    25.00     0  00:15        2.02        2.12      17.880
  81309                JUNCTION      0.00    32.14     0  02:16           0         1.8      44.231
  82309                JUNCTION     40.00    62.50     0  02:40        3.23        5.03      -0.463
  10309                JUNCTION      0.00   115.08     0  00:06           0        6.09       6.953
  15009                JUNCTION      0.00     9.94     0  01:00           0       0.844      29.196
  16009                JUNCTION      0.00    67.37     0  03:00           0        5.64       1.056
  16109                JUNCTION      0.00    62.50     0  02:40           0        5.08       3.369
  10208                OUTFALL       0.00   115.08     0  00:06           0        6.24       0.000
  
  
  **********************
  Node Surcharge Summary
  **********************
  
  Surcharging occurs when water rises above the top of the highest conduit.
  ---------------------------------------------------------------------
                                               Max. Height   Min. Depth
                                   Hours       Above Crown    Below Rim
  Node                 Type      Surcharged           Feet         Feet
  ---------------------------------------------------------------------
  80608                JUNCTION        0.63          0.722       11.978
  81009                JUNCTION        3.75          6.701        0.000
  81309                JUNCTION        4.72         17.389        0.000
  82309                JUNCTION        2.17          5.346       31.154
  
  
  *********************
  Node Flooding Summary
  *********************
  
  Flooding refers to all water that overflows a node, whether it ponds or not.
  --------------------------------------------------------------------------
                                                             Total   Maximum
                                 Maximum   Time of Max       Flood    Ponded
                        Hours       Rate    Occurrence      Volume     Depth
  Node                 Flooded       CFS   days hr:min    10^6 gal      Feet
  --------------------------------------------------------------------------
  81009                   3.51     16.21      0  05:36       0.163     2.401
  81309                   4.71     26.91      0  02:16       0.727     9.389
  
  
  ***********************
  Outfall Loading Summary
  ***********************
  
  -----------------------------------------------------------
                         Flow       Avg       Max       Total
                         Freq      Flow      Flow      Volume
  Outfall Node           Pcnt       CFS       CFS    10^6 gal
  -----------------------------------------------------------
  10208                100.00     38.63    115.08       6.241
  -----------------------------------------------------------
  System               100.00     38.63    115.08       6.241
  
  
  ********************
  Link Flow Summary
  ********************
  
  -----------------------------------------------------------------------------
                                 Maximum  Time of Max   Maximum    Max/    Max/
                                  |Flow|   Occurrence   |Veloc|    Full    Full
  Link                 Type          CFS  days hr:min    ft/sec    Flow   Depth
  -----------------------------------------------------------------------------
  8040                 CONDUIT     23.49     0  00:23      6.17    0.32    0.69
  8060                 CONDUIT     38.56     0  03:09      3.88    0.72    1.00
  8100                 CONDUIT     32.14     0  02:16      5.54    0.41    1.00
  8130                 CONDUIT      5.00     0  00:22      5.60    0.04    0.72
  1030                 CONDUIT    115.08     0  00:06      1.61    0.04    0.62
  1570                 CONDUIT      7.13     0  03:48      1.18    0.25    0.40
  1600                 CONDUIT     62.49     0  03:00      4.00    0.38    0.54
  1630                 CONDUIT     67.34     0  03:00      4.44    0.03    0.25
  1602                 CONDUIT     62.50     0  02:40      3.32    1.32    0.91
  
  
  ***************************
  Flow Classification Summary
  ***************************
  
  -------------------------------------------------------------------------------------
                      Adjusted    ---------- Fraction of Time in Flow Class ---------- 
                       /Actual         Up    Down  Sub   Sup   Up    Down  Norm  Inlet 
  Conduit               Length    Dry  Dry   Dry   Crit  Crit  Crit  Crit  Ltd   Ctrl  
  -------------------------------------------------------------------------------------
  8040                    1.00   0.00  0.00  0.00  0.95  0.05  0.00  0.00  0.94  0.00
  8060                    1.00   0.00  0.00  0.00  0.54  0.00  0.00  0.46  0.16  0.00
  8100                    1.00   0.00  0.00  0.00  0.95  0.05  0.00  0.00  0.11  0.00
  8130                    1.00   0.00  0.00  0.00  0.95  0.05  0.00  0.00  0.00  0.00
  1030                    1.00   0.00  0.00  0.00  1.00  0.00  0.00  0.00  0.61  0.00
  1570                    1.00   0.00  0.00  0.00  1.00  0.00  0.00  0.00  0.03  0.00
  1600                    1.00   0.00  0.01  0.00  0.99  0.00  0.00  0.00  0.02  0.00
  1630                    1.00   0.00  0.01  0.00  0.99  0.00  0.00  0.00  0.03  0.00
  1602                    1.00   0.00  0.00  0.00  1.00  0.00  0.00  0.00  0.43  0.00
  
  
  *************************
  Conduit Surcharge Summary
  *************************
  
  ----------------------------------------------------------------------------
                                                           Hours        Hours 
                         --------- Hours Full --------   Above Full   Capacity
  Conduit                Both Ends  Upstream  Dnstream   Normal Flow   Limited
  ----------------------------------------------------------------------------
  8040                        0.01      0.01      0.63      0.01         0.01
  8060                        0.63      0.63      2.17      0.01         0.01
  8100                        3.75      3.75      4.72      0.01         0.01
  8130                        0.01      4.72      0.01      0.01         0.01
  1030                        0.01      0.01      6.00      0.01         0.01
  1602                        0.01      2.66      0.01      2.77         0.01
  

  Analysis begun on:  Tue Jun 23 21:07:15 2026
  Analysis ended on:  Tue Jun 23 21:07:15 2026
  Total elapsed time: < 1 sec