
  EPA STORM WATER MANAGEMENT MODEL - VERSION 5.2 (Build 5.2.4)
  ------------------------------------------------------------

   SW 1 0 20A1 'EXTRAN USER''S MANUAL EXAMPLE 1'A1 'baseline extran model from 
  
  *************
  Element Count
  *************
  Number of rain gages ...... 0
  Number of subcatchments ... 0
  Number of nodes ........... 10
  Number of links ........... 9
  Number of pollutants ...... 0
  Number of land uses ....... 0
  
  
  ************
  Node Summary
  ************
                                           Invert      Max.    Ponded    External
  Name                 Type                 Elev.     Depth      Area    Inflow  
  -------------------------------------------------------------------------------
  10309                JUNCTION             14.00      9.40       0.0
  15009                JUNCTION            111.50     13.50       0.0
  16009                JUNCTION            102.00     18.00       0.0
  16109                JUNCTION            102.80     22.20       0.0
  80408                JUNCTION            124.60     13.40       0.0    Yes
  80608                JUNCTION            118.30     16.70       0.0
  81009                JUNCTION            128.20      8.80       0.0    Yes
  81309                JUNCTION            117.50     12.50       0.0
  82309                JUNCTION            112.30     42.70       0.0    Yes
  10208                OUTFALL              12.00      0.00       0.0
  
  
  ************
  Link Summary
  ************
  Name             From Node        To Node          Type            Length    %Slope Roughness
  ---------------------------------------------------------------------------------------------
  8040             80408            80608            CONDUIT         1800.0    0.3500    0.0150
  8060             80608            82309            CONDUIT         2075.0    0.1831    0.0150
  8100             81009            81309            CONDUIT         5100.0    0.2098    0.0150
  8130             81309            15009            CONDUIT         3500.0    0.1714    0.0150
  1570             15009            16009            CONDUIT         5000.0    0.1900    0.0154
  1600             16009            16109            CONDUIT          500.0   -0.1600    0.0150
  1630             16009            10309            CONDUIT          300.0   30.6831    0.0150
  1602             82309            16109            CONDUIT         5000.0    0.1900    0.0340
  1030             10309            10208            OUTLET      
  
  
  *********************
  Cross Section Summary
  *********************
                                        Full     Full     Hyd.     Max.   No. of     Full
  Conduit          Shape               Depth     Area     Rad.    Width  Barrels     Flow
  ---------------------------------------------------------------------------------------
  8040             CIRCULAR             4.00    12.57     1.00     4.00        1 49565.57
  8060             CIRCULAR             4.00    12.57     1.00     4.00        1 35853.20
  8100             CIRCULAR             4.50    15.90     1.12     4.50        1 52536.21
  8130             CIRCULAR             4.50    15.90     1.12     4.50        1 47489.04
  1570             CIRCULAR             5.50    23.76     1.38     5.50        1 83157.17
  1600             CIRCULAR             6.00    28.27     1.50     6.00        1 98805.64
  1630             TRIANGULAR           9.00   243.00     4.27    54.00        1 23616368.47
  1602             CIRCULAR             5.00    19.63     1.25     5.00        1 29211.98
  
  
  ****************
  Analysis Options
  ****************
  Flow Units ............... LPS
  Process Models:
    Rainfall/Runoff ........ NO
    RDII ................... NO
    Snowmelt ............... NO
    Groundwater ............ NO
    Flow Routing ........... YES
    Ponding Allowed ........ NO
    Water Quality .......... NO
  Flow Routing Method ...... DYNWAVE
  Surcharge Method ......... EXTRAN
  Starting Date ............ 02/22/2002 00:00:00
  Ending Date .............. 02/22/2002 08:00:00
  Antecedent Dry Days ...... 0.0
  Report Time Step ......... 00:01:00
  Routing Time Step ........ 60.00 sec
  Variable Time Step ....... YES
  Maximum Trials ........... 8
  Number of Threads ........ 1
  Head Tolerance ........... 0.001524 m
  
  
  *********************
  Control Actions Taken
  *********************

  
  **************************        Volume        Volume
  Flow Routing Continuity        hectare-m      10^6 ltr
  **************************     ---------     ---------
  Dry Weather Inflow .......         0.000         0.000
  Wet Weather Inflow .......         0.000         0.000
  Groundwater Inflow .......         0.000         0.000
  RDII Inflow ..............         0.000         0.000
  External Inflow ..........        54.053       540.536
  External Outflow .........        38.712       387.119
  Flooding Loss ............         1.129        11.289
  Evaporation Loss .........         0.000         0.000
  Exfiltration Loss ........         0.000         0.000
  Initial Stored Volume ....         0.000         0.000
  Final Stored Volume ......         1.246        12.458
  Continuity Error (%) .....        23.989
  
  
  *************************
  Highest Continuity Errors
  *************************
  Node 10309 (28.09%)
  Node 15009 (3.51%)
  Node 16009 (-3.10%)
  Node 80608 (3.00%)
  Node 82309 (-2.45%)
  
  
  ***************************
  Time-Step Critical Elements
  ***************************
  Link 1600 (20.08%)
  
  
  ********************************
  Highest Flow Instability Indexes
  ********************************
  All links are stable.
  
  
  *********************************
  Most Frequent Nonconverging Nodes
  *********************************
  Node 10208 (11.59%)
  Node 82309 (8.90%)
  Node 80608 (7.66%)
  Node 80408 (1.66%)
  
  
  *************************
  Routing Time Step Summary
  *************************
  Minimum Time Step           :     8.35 sec
  Average Time Step           :    59.63 sec
  Maximum Time Step           :    60.00 sec
  % of Time in Steady State   :     0.00
  Average Iterations per Step :     3.22
  % of Steps Not Converging   :    11.59
  Time Step Frequencies       :
     60.000 - 23.031 sec      :    99.79 %
     23.031 -  8.841 sec      :     0.00 %
      8.841 -  3.393 sec      :     0.21 %
      3.393 -  1.303 sec      :     0.00 %
      1.303 -  0.500 sec      :     0.00 %
  
  
  ******************
  Node Depth Summary
  ******************
  
  ---------------------------------------------------------------------------------
                                 Average  Maximum  Maximum  Time of Max    Reported
                                   Depth    Depth      HGL   Occurrence   Max Depth
  Node                 Type       Meters   Meters   Meters  days hr:min      Meters
  ---------------------------------------------------------------------------------
  10309                JUNCTION     4.43     6.44    20.44     0  04:14        6.44
  15009                JUNCTION     0.48     0.92   112.42     0  03:16        0.92
  16009                JUNCTION     0.50     0.88   102.88     0  03:02        0.88
  16109                JUNCTION     1.52     3.22   106.02     0  02:12        3.22
  80408                JUNCTION     3.78    13.40   138.00     0  01:06       13.40
  80608                JUNCTION     4.43    15.98   134.28     0  01:07       15.98
  81009                JUNCTION     0.45     0.99   129.19     0  00:57        0.99
  81309                JUNCTION     0.53     1.04   118.54     0  02:17        1.04
  82309                JUNCTION     5.17    17.04   129.34     0  01:07       17.04
  10208                OUTFALL      0.00     0.00    12.00     0  00:00        0.00
  
  
  *******************
  Node Inflow Summary
  *******************
  
  -------------------------------------------------------------------------------------------------
                                  Maximum  Maximum                  Lateral       Total        Flow
                                  Lateral    Total  Time of Max      Inflow      Inflow     Balance
                                   Inflow   Inflow   Occurrence      Volume      Volume       Error
  Node                 Type           LPS      LPS  days hr:min    10^6 ltr    10^6 ltr     Percent
  -------------------------------------------------------------------------------------------------
  10309                JUNCTION      0.00 48598.21     0  03:02           0         538      39.068
  15009                JUNCTION      0.00  5099.18     0  02:53           0        53.9       3.637
  16009                JUNCTION      0.00 48631.24     0  03:01           0         522      -3.009
  16109                JUNCTION      0.00 43742.38     0  02:11           0         473       0.000
  80408                JUNCTION  45000.00 45000.00     0  00:16         486         486      -0.248
  80608                JUNCTION      0.00 46209.28     0  00:25           0         476       3.096
  81009                JUNCTION   5000.00  5000.00     0  00:16          54          54      -1.673
  81309                JUNCTION      0.00  5256.08     0  01:26           0        54.9       1.981
  82309                JUNCTION     50.00 45602.73     0  00:56        0.54         462      -2.390
  10208                OUTFALL       0.00 21404.29     0  04:15           0         387       0.000
  
  
  **********************
  Node Surcharge Summary
  **********************
  
  Surcharging occurs when water rises above the top of the highest conduit.
  ---------------------------------------------------------------------
                                               Max. Height   Min. Depth
                                   Hours       Above Crown    Below Rim
  Node                 Type      Surcharged         Meters       Meters
  ---------------------------------------------------------------------
  80408                JUNCTION        2.01          9.400        0.000
  80608                JUNCTION        2.46         11.984        0.716
  82309                JUNCTION        2.30         10.843       25.657
  
  
  *********************
  Node Flooding Summary
  *********************
  
  Flooding refers to all water that overflows a node, whether it ponds or not.
  --------------------------------------------------------------------------
                                                             Total   Maximum
                                 Maximum   Time of Max       Flood    Ponded
                        Hours       Rate    Occurrence      Volume     Depth
  Node                 Flooded       LPS   days hr:min    10^6 ltr    Meters
  --------------------------------------------------------------------------
  80408                   1.93   4688.22      0  01:08      11.289     0.000
  
  
  ***********************
  Outfall Loading Summary
  ***********************
  
  -----------------------------------------------------------
                         Flow       Avg       Max       Total
                         Freq      Flow      Flow      Volume
  Outfall Node           Pcnt       LPS       LPS    10^6 ltr
  -----------------------------------------------------------
  10208                 94.00  14277.93  21404.29     387.118
  -----------------------------------------------------------
  System                94.00  14277.93  21404.29     387.118
  
  
  ********************
  Link Flow Summary
  ********************
  
  -----------------------------------------------------------------------------
                                 Maximum  Time of Max   Maximum    Max/    Max/
                                  |Flow|   Occurrence   |Veloc|    Full    Full
  Link                 Type          LPS  days hr:min     m/sec    Flow   Depth
  -----------------------------------------------------------------------------
  8040                 CONDUIT  46209.28     0  00:25      5.64    0.93    1.00
  8060                 CONDUIT  45552.73     0  00:56      3.92    1.27    1.00
  8100                 CONDUIT   5256.08     0  01:26      2.67    0.10    0.22
  8130                 CONDUIT   5099.18     0  02:53      2.32    0.11    0.22
  1570                 CONDUIT   4905.54     0  03:05      1.95    0.06    0.16
  1600                 CONDUIT  43759.87     0  02:25      5.14    0.44    0.34
  1630                 CONDUIT  48598.21     0  03:02     13.16    0.00    0.40
  1602                 CONDUIT  43742.38     0  02:11      2.62    1.50    0.82
  1030                 DUMMY    21404.29     0  04:15
  
  
  ***************************
  Flow Classification Summary
  ***************************
  
  -------------------------------------------------------------------------------------
                      Adjusted    ---------- Fraction of Time in Flow Class ---------- 
                       /Actual         Up    Down  Sub   Sup   Up    Down  Norm  Inlet 
  Conduit               Length    Dry  Dry   Dry   Crit  Crit  Crit  Crit  Ltd   Ctrl  
  -------------------------------------------------------------------------------------
  8040                    1.00   0.00  0.00  0.00  0.95  0.05  0.00  0.00  0.64  0.00
  8060                    1.00   0.00  0.00  0.00  0.41  0.00  0.00  0.59  0.09  0.00
  8100                    1.00   0.00  0.00  0.00  0.89  0.11  0.00  0.00  0.82  0.00
  8130                    1.00   0.00  0.00  0.00  0.87  0.13  0.00  0.00  0.57  0.00
  1570                    1.00   0.00  0.00  0.00  1.00  0.00  0.00  0.00  0.27  0.00
  1600                    1.34   0.00  0.00  0.00  0.36  0.64  0.00  0.00  0.00  0.00
  1630                   20.77   0.00  0.00  0.00  0.81  0.19  0.00  0.00  0.88  0.00
  1602                    1.00   0.00  0.00  0.00  1.00  0.00  0.00  0.00  0.26  0.00
  
  
  *************************
  Conduit Surcharge Summary
  *************************
  
  ----------------------------------------------------------------------------
                                                           Hours        Hours 
                         --------- Hours Full --------   Above Full   Capacity
  Conduit                Both Ends  Upstream  Dnstream   Normal Flow   Limited
  ----------------------------------------------------------------------------
  8040                        2.01      2.01      2.43      0.01         0.01
  8060                        2.16      2.43      2.30      2.51         2.05
  1602                        0.01      2.68      0.01      2.55         0.01
  

  Analysis begun on:  Tue Jun 23 21:07:15 2026
  Analysis ended on:  Tue Jun 23 21:07:15 2026
  Total elapsed time: < 1 sec