
  EPA STORM WATER MANAGEMENT MODEL - VERSION 5.2 (Build 5.2.4)
  ------------------------------------------------------------

  
  ERROR 207: duplicate ID name 16009.1 at line 70 of [CONDUIT] section:
  16009.1             16009            10309            300.0      0.015      0.0        0.0        0.0        0         


  Analysis begun on:  Tue Jun 23 21:07:15 2026
  Analysis ended on:  Tue Jun 23 21:07:15 2026
  Total elapsed time: < 1 sec