
  EPA STORM WATER MANAGEMENT MODEL - VERSION 5.2 (Build 5.2.4)
  ------------------------------------------------------------

  Example 4 of Extran Manual - 
  Weir 
  
  ****************
  Analysis Options
  ****************
  Flow Units ............... CFS
  Process Models:
    Rainfall/Runoff ........ NO
    RDII ................... NO
    Snowmelt ............... NO
    Groundwater ............ NO
    Flow Routing ........... YES
    Ponding Allowed ........ NO
    Water Quality .......... NO
  Flow Routing Method ...... DYNWAVE
  Surcharge Method ......... EXTRAN
  Starting Date ............ 01/01/2002 00:00:00
  Ending Date .............. 01/01/2002 08:00:00
  Antecedent Dry Days ...... 0.0
  Report Time Step ......... 00:15:00
  Routing Time Step ........ 20.00 sec
  Variable Time Step ....... NO
  Maximum Trials ........... 8
  Number of Threads ........ 1
  Head Tolerance ........... 0.005000 ft
  
  
  **************************        Volume        Volume
  Flow Routing Continuity        acre-feet      10^6 gal
  **************************     ---------     ---------
  Dry Weather Inflow .......         0.000         0.000
  Wet Weather Inflow .......         0.000         0.000
  Groundwater Inflow .......         0.000         0.000
  RDII Inflow ..............         0.000         0.000
  External Inflow ..........        33.470        10.907
  External Outflow .........        33.367        10.873
  Flooding Loss ............         0.000         0.000
  Evaporation Loss .........         0.000         0.000
  Exfiltration Loss ........         0.000         0.000
  Initial Stored Volume ....         0.000         0.000
  Final Stored Volume ......         0.117         0.038
  Continuity Error (%) .....        -0.043
  
  
  *************************
  Highest Continuity Errors
  *************************
  Node 80608 (1.48%)
  
  
  ********************************
  Highest Flow Instability Indexes
  ********************************
  All links are stable.
  
  
  *********************************
  Most Frequent Nonconverging Nodes
  *********************************
  Convergence obtained at all time steps.
  
  
  *************************
  Routing Time Step Summary
  *************************
  Minimum Time Step           :    20.00 sec
  Average Time Step           :    20.00 sec
  Maximum Time Step           :    20.00 sec
  % of Time in Steady State   :     0.00
  Average Iterations per Step :     2.01
  % of Steps Not Converging   :     0.00
  
  
  ******************
  Node Depth Summary
  ******************
  
  ---------------------------------------------------------------------------------
                                 Average  Maximum  Maximum  Time of Max    Reported
                                   Depth    Depth      HGL   Occurrence   Max Depth
  Node                 Type         Feet     Feet     Feet  days hr:min        Feet
  ---------------------------------------------------------------------------------
  80408                JUNCTION     0.90     2.36   126.96     0  00:18        2.26
  80608                JUNCTION     1.19     2.82   121.12     0  03:00        2.82
  81009                JUNCTION     1.11     2.85   131.05     0  00:32        2.84
  81309                JUNCTION     1.24     2.80   120.30     0  01:15        2.80
  82309                JUNCTION     2.52     5.67   117.97     0  00:52        5.66
  10309                JUNCTION     1.50     2.86   104.46     0  02:02        2.86
  15009                JUNCTION     1.57     3.70   115.20     0  01:38        3.70
  16009                JUNCTION     1.57     3.05   105.05     0  01:54        3.05
  16109                JUNCTION     1.21     2.55   105.35     0  01:57        2.55
  10208                OUTFALL      1.32     2.63    92.53     0  02:02        2.63
  
  
  *******************
  Node Inflow Summary
  *******************
  
  -------------------------------------------------------------------------------------------------
                                  Maximum  Maximum                  Lateral       Total        Flow
                                  Lateral    Total  Time of Max      Inflow      Inflow     Balance
                                   Inflow   Inflow   Occurrence      Volume      Volume       Error
  Node                 Type           CFS      CFS  days hr:min    10^6 gal    10^6 gal     Percent
  -------------------------------------------------------------------------------------------------
  80408                JUNCTION     45.00    45.00     0  00:15        3.64        3.64      -0.189
  80608                JUNCTION      0.00    46.77     0  00:22           0        3.64       1.499
  81009                JUNCTION     50.00    50.00     0  00:15        4.04        4.04      -0.526
  81309                JUNCTION      0.00    52.83     0  00:41           0        4.06       0.326
  82309                JUNCTION     40.00    85.00     0  03:00        3.23        6.82      -0.764
  10309                JUNCTION      0.00   135.02     0  01:52           0        10.9       0.114
  15009                JUNCTION      0.00    90.27     0  00:57           0        6.99      -0.015
  16009                JUNCTION      0.00   135.03     0  01:48           0        10.9       0.201
  16109                JUNCTION      0.00    45.61     0  01:53           0        3.93       0.358
  10208                OUTFALL       0.00   135.02     0  02:02           0        10.9       0.000
  
  
  **********************
  Node Surcharge Summary
  **********************
  
  No nodes were surcharged.
  
  
  *********************
  Node Flooding Summary
  *********************
  
  No nodes were flooded.
  
  
  ***********************
  Outfall Loading Summary
  ***********************
  
  -----------------------------------------------------------
                         Flow       Avg       Max       Total
                         Freq      Flow      Flow      Volume
  Outfall Node           Pcnt       CFS       CFS    10^6 gal
  -----------------------------------------------------------
  10208                 94.24     53.56    135.02      10.872
  -----------------------------------------------------------
  System                94.24     53.56    135.02      10.872
  
  
  ********************
  Link Flow Summary
  ********************
  
  -----------------------------------------------------------------------------
                                 Maximum  Time of Max   Maximum    Max/    Max/
                                  |Flow|   Occurrence   |Veloc|    Full    Full
  Link                 Type          CFS  days hr:min    ft/sec    Flow   Depth
  -----------------------------------------------------------------------------
  8040                 CONDUIT     46.77     0  00:22      7.13    0.64    0.63
  8060                 CONDUIT     45.00     0  03:00      4.80    0.84    0.79
  8100                 CONDUIT     52.83     0  00:41      6.75    0.68    0.60
  8130                 CONDUIT     50.02     0  01:15      5.02    0.71    0.72
  1030                 CONDUIT    135.02     0  02:02      5.98    0.04    0.30
  1570                 CONDUIT     89.43     0  01:41      5.84    0.72    0.61
  1600                 CONDUIT     45.61     0  02:05      4.92    0.31    0.47
  1630                 CONDUIT    135.02     0  01:52      6.04    0.06    0.33
  1602                 CONDUIT     45.61     0  01:53      2.88    1.05    0.76
  90010                WEIR        40.61     0  00:52                      0.89
  
  
  ***************************
  Flow Classification Summary
  ***************************
  
  -------------------------------------------------------------------------------------
                      Adjusted    ---------- Fraction of Time in Flow Class ---------- 
                       /Actual         Up    Down  Sub   Sup   Up    Down  Norm  Inlet 
  Conduit               Length    Dry  Dry   Dry   Crit  Crit  Crit  Crit  Ltd   Ctrl  
  -------------------------------------------------------------------------------------
  8040                    1.00   0.00  0.00  0.00  0.97  0.03  0.00  0.00  0.95  0.00
  8060                    1.00   0.00  0.00  0.00  0.40  0.00  0.00  0.60  0.38  0.00
  8100                    1.00   0.00  0.00  0.00  0.97  0.03  0.00  0.00  0.91  0.00
  8130                    1.00   0.00  0.00  0.00  0.98  0.02  0.00  0.00  0.91  0.00
  1030                    1.00   0.03  0.00  0.00  0.97  0.00  0.00  0.00  0.00  0.00
  1570                    1.00   0.00  0.00  0.00  1.00  0.00  0.00  0.00  0.60  0.00
  1600                    1.00   0.00  0.00  0.00  0.98  0.02  0.00  0.00  0.50  0.00
  1630                    1.00   0.00  0.00  0.00  0.97  0.03  0.00  0.00  0.45  0.00
  1602                    1.00   0.00  0.00  0.00  1.00  0.00  0.00  0.00  0.00  0.00
  
  
  *************************
  Conduit Surcharge Summary
  *************************
  
  ----------------------------------------------------------------------------
                                                           Hours        Hours 
                         --------- Hours Full --------   Above Full   Capacity
  Conduit                Both Ends  Upstream  Dnstream   Normal Flow   Limited
  ----------------------------------------------------------------------------
  1602                        0.01      2.68      0.01      2.43         0.01
  

  Analysis begun on:  Tue Jun 23 21:07:17 2026
  Analysis ended on:  Tue Jun 23 21:07:17 2026
  Total elapsed time: < 1 sec