
  EPA STORM WATER MANAGEMENT MODEL - VERSION 5.2 (Build 5.2.4)
  ------------------------------------------------------------

  Example 1 of Extran Manual 
  
  ****************
  Analysis Options
  ****************
  Flow Units ............... CFS
  Process Models:
    Rainfall/Runoff ........ NO
    RDII ................... NO
    Snowmelt ............... NO
    Groundwater ............ NO
    Flow Routing ........... YES
    Ponding Allowed ........ NO
    Water Quality .......... YES
  Flow Routing Method ...... DYNWAVE
  Surcharge Method ......... EXTRAN
  Starting Date ............ 01/01/2002 00:00:00
  Ending Date .............. 01/01/2002 08:00:00
  Antecedent Dry Days ...... 0.0
  Report Time Step ......... 00:15:00
  Routing Time Step ........ 60.00 sec
  Variable Time Step ....... NO
  Maximum Trials ........... 8
  Number of Threads ........ 1
  Head Tolerance ........... 0.005000 ft
  
  
  **************************        Volume        Volume
  Flow Routing Continuity        acre-feet      10^6 gal
  **************************     ---------     ---------
  Dry Weather Inflow .......         3.302         1.076
  Wet Weather Inflow .......         0.000         0.000
  Groundwater Inflow .......         0.000         0.000
  RDII Inflow ..............         0.000         0.000
  External Inflow ..........        33.470        10.907
  External Outflow .........        35.760        11.653
  Flooding Loss ............         0.000         0.000
  Evaporation Loss .........         0.000         0.000
  Exfiltration Loss ........         0.000         0.000
  Initial Stored Volume ....         0.342         0.111
  Final Stored Volume ......         1.558         0.508
  Continuity Error (%) .....        -0.550
  
  
  **************************           TSS
  Quality Routing Continuity           lbs
  **************************    ----------
  Dry Weather Inflow .......        44.869
  Wet Weather Inflow .......         0.000
  Groundwater Inflow .......         0.000
  RDII Inflow ..............         0.000
  External Inflow ..........         0.000
  External Outflow .........        24.203
  Flooding Loss ............         0.000
  Exfiltration Loss ........         0.000
  Mass Reacted .............         2.149
  Initial Stored Mass ......         0.000
  Final Stored Mass ........        14.333
  Continuity Error (%) .....         9.323
  
  
  *************************
  Highest Continuity Errors
  *************************
  Node 80608 (1.60%)
  
  
  ********************************
  Highest Flow Instability Indexes
  ********************************
  Link 8060 (5)
  Link 8040 (4)
  Link 1630 (3)
  Link 1602 (2)
  
  
  *********************************
  Most Frequent Nonconverging Nodes
  *********************************
  Node 10208 (10.42%)
  Node 82309 (10.00%)
  Node 80608 (9.17%)
  Node 80408 (7.92%)
  Node 81009 (0.21%)
  
  
  *************************
  Routing Time Step Summary
  *************************
  Minimum Time Step           :    60.00 sec
  Average Time Step           :    60.00 sec
  Maximum Time Step           :    60.00 sec
  % of Time in Steady State   :     0.00
  Average Iterations per Step :     2.80
  % of Steps Not Converging   :    10.42
  
  
  ******************
  Node Depth Summary
  ******************
  
  ---------------------------------------------------------------------------------
                                 Average  Maximum  Maximum  Time of Max    Reported
                                   Depth    Depth      HGL   Occurrence   Max Depth
  Node                 Type         Feet     Feet     Feet  days hr:min        Feet
  ---------------------------------------------------------------------------------
  80408                JUNCTION     9.35    30.30   154.90     0  00:45       30.30
  80608                JUNCTION    10.68    33.68   151.98     0  00:45       33.68
  81009                JUNCTION     1.10     2.85   131.05     0  00:32        2.84
  81309                JUNCTION     1.31     3.11   120.61     0  01:00        3.11
  82309                JUNCTION    12.29    36.31   148.61     0  00:44       36.29
  10309                JUNCTION     1.62     2.90   104.50     0  01:44        2.90
  15009                JUNCTION     1.12     2.45   113.95     0  01:33        2.45
  16009                JUNCTION     1.78     3.10   105.10     0  01:38        3.10
  16109                JUNCTION     1.74     3.33   106.13     0  01:35        3.33
  10208                OUTFALL      2.27     2.67    92.57     0  01:44        2.67
  
  
  *******************
  Node Inflow Summary
  *******************
  
  -------------------------------------------------------------------------------------------------
                                  Maximum  Maximum                  Lateral       Total        Flow
                                  Lateral    Total  Time of Max      Inflow      Inflow     Balance
                                   Inflow   Inflow   Occurrence      Volume      Volume       Error
  Node                 Type           CFS      CFS  days hr:min    10^6 gal    10^6 gal     Percent
  -------------------------------------------------------------------------------------------------
  80408                JUNCTION     50.00    50.00     0  00:16        4.71        4.71      -0.062
  80608                JUNCTION      0.00    51.12     0  00:21           0        4.71       1.628
  81009                JUNCTION     50.00    50.00     0  00:16        4.04        4.04      -0.402
  81309                JUNCTION      0.00    53.76     0  00:40           0        4.06       0.364
  82309                JUNCTION     40.00    90.71     0  00:49        3.23        7.87       0.582
  10309                JUNCTION      0.00   140.58     0  01:37           0        11.7       0.750
  15009                JUNCTION      0.00    51.13     0  01:13           0        4.04       0.234
  16009                JUNCTION      0.00   140.61     0  01:34           0        11.8       0.555
  16109                JUNCTION      0.00    90.89     0  00:49           0        7.82       0.659
  10208                OUTFALL       0.00   140.51     0  01:44           0        11.7       0.000
  
  
  **********************
  Node Surcharge Summary
  **********************
  
  Surcharging occurs when water rises above the top of the highest conduit.
  ---------------------------------------------------------------------
                                               Max. Height   Min. Depth
                                   Hours       Above Crown    Below Rim
  Node                 Type      Surcharged           Feet         Feet
  ---------------------------------------------------------------------
  80408                JUNCTION        2.58         26.305        0.000
  80608                JUNCTION        2.72         29.678        0.000
  82309                JUNCTION        2.80         30.114        6.386
  
  
  *********************
  Node Flooding Summary
  *********************
  
  No nodes were flooded.
  
  
  ***********************
  Outfall Loading Summary
  ***********************
  
  -------------------------------------------------------------------------
                         Flow       Avg       Max       Total         Total
                         Freq      Flow      Flow      Volume           TSS
  Outfall Node           Pcnt       CFS       CFS    10^6 gal           lbs
  -------------------------------------------------------------------------
  10208                 93.54     57.83    140.51      11.652        24.233
  -------------------------------------------------------------------------
  System                93.54     57.83    140.51      11.652        24.233
  
  
  ********************
  Link Flow Summary
  ********************
  
  -----------------------------------------------------------------------------
                                 Maximum  Time of Max   Maximum    Max/    Max/
                                  |Flow|   Occurrence   |Veloc|    Full    Full
  Link                 Type          CFS  days hr:min    ft/sec    Flow   Depth
  -----------------------------------------------------------------------------
  8040                 CONDUIT     51.12     0  00:21    >50.00    0.69    1.00
  8060                 CONDUIT     50.71     0  03:02      5.12    0.95    1.00
  8100                 CONDUIT     53.76     0  00:40     43.70    0.69    0.64
  8130                 CONDUIT     51.13     0  01:13      5.50    0.72    0.61
  1030                 CONDUIT    140.51     0  01:44      6.03    0.05    0.31
  1570                 CONDUIT     50.55     0  01:34      4.29    0.41    0.50
  1600                 CONDUIT     90.06     0  01:29      6.07    0.61    0.54
  1630                 CONDUIT    140.58     0  01:37      7.84    0.06    0.33
  1602                 CONDUIT     90.89     0  00:49      5.71    2.09    0.83
  
  
  ***************************
  Flow Classification Summary
  ***************************
  
  -------------------------------------------------------------------------------------
                      Adjusted    ---------- Fraction of Time in Flow Class ---------- 
                       /Actual         Up    Down  Sub   Sup   Up    Down  Norm  Inlet 
  Conduit               Length    Dry  Dry   Dry   Crit  Crit  Crit  Crit  Ltd   Ctrl  
  -------------------------------------------------------------------------------------
  8040                    1.00   0.00  0.00  0.00  0.97  0.03  0.00  0.00  0.62  0.00
  8060                    1.00   0.00  0.00  0.00  0.44  0.00  0.00  0.56  0.07  0.00
  8100                    1.00   0.00  0.00  0.00  0.97  0.03  0.00  0.00  0.92  0.00
  8130                    1.00   0.00  0.00  0.00  0.99  0.01  0.00  0.00  0.58  0.00
  1030                    1.00   0.00  0.05  0.00  0.95  0.00  0.00  0.00  0.58  0.00
  1570                    1.00   0.00  0.00  0.00  1.00  0.00  0.00  0.00  0.96  0.00
  1600                    1.00   0.00  0.00  0.00  1.00  0.00  0.00  0.00  0.50  0.00
  1630                    1.00   0.00  0.00  0.00  0.96  0.04  0.00  0.00  0.00  0.00
  1602                    1.00   0.00  0.00  0.00  1.00  0.00  0.00  0.00  0.00  0.00
  
  
  *************************
  Conduit Surcharge Summary
  *************************
  
  ----------------------------------------------------------------------------
                                                           Hours        Hours 
                         --------- Hours Full --------   Above Full   Capacity
  Conduit                Both Ends  Upstream  Dnstream   Normal Flow   Limited
  ----------------------------------------------------------------------------
  8040                        2.58      2.58      2.68      0.01         0.01
  8060                        2.68      2.68      2.80      0.01         0.01
  1602                        0.01      3.05      0.01      2.97         0.01
  
  
  ***************************
  Link Pollutant Load Summary
  ***************************
  
  ----------------------------------
                                 TSS
  Link                           lbs
  ----------------------------------
  8040                        42.168
  8060                        39.428
  8100                         0.000
  8130                         0.000
  1030                        24.233
  1570                         0.000
  1600                        31.684
  1630                        31.651
  1602                        31.907
  

  Analysis begun on:  Tue Jun 23 21:07:16 2026
  Analysis ended on:  Tue Jun 23 21:07:16 2026
  Total elapsed time: < 1 sec