
  EPA STORM WATER MANAGEMENT MODEL - VERSION 5.2 (Build 5.2.4)
  ------------------------------------------------------------

  
  ERROR 205: invalid keyword > at line 102 of [CONTROL] section:
  If SimulationTime > 0

  
  ERROR 211: invalid number 2.0 at line 103 of [CONTROL] section:
  Then  OUTLET 90010 Setting = 2.0


  Analysis begun on:  Tue Jun 23 21:07:17 2026
  Analysis ended on:  Tue Jun 23 21:07:17 2026
  Total elapsed time: < 1 sec