
  EPA STORM WATER MANAGEMENT MODEL - VERSION 5.2 (Build 5.2.4)
  ------------------------------------------------------------

  Example 1 of Extran Manual 
  
  ****************
  Analysis Options
  ****************
  Flow Units ............... CFS
  Process Models:
    Rainfall/Runoff ........ NO
    RDII ................... NO
    Snowmelt ............... NO
    Groundwater ............ NO
    Flow Routing ........... YES
    Ponding Allowed ........ NO
    Water Quality .......... NO
  Flow Routing Method ...... DYNWAVE
  Surcharge Method ......... SLOT
  Starting Date ............ 01/01/2002 00:00:00
  Ending Date .............. 01/01/2002 08:00:00
  Antecedent Dry Days ...... 0.0
  Report Time Step ......... 00:15:00
  Routing Time Step ........ 1.00 sec
  Variable Time Step ....... NO
  Maximum Trials ........... 8
  Number of Threads ........ 1
  Head Tolerance ........... 0.005000 ft
  
  
  **************************        Volume        Volume
  Flow Routing Continuity        acre-feet      10^6 gal
  **************************     ---------     ---------
  Dry Weather Inflow .......         0.000         0.000
  Wet Weather Inflow .......         0.000         0.000
  Groundwater Inflow .......         0.000         0.000
  RDII Inflow ..............         0.000         0.000
  External Inflow ..........      1137.975       370.826
  External Outflow .........        76.766        25.015
  Flooding Loss ............      1061.226       345.816
  Evaporation Loss .........         0.000         0.000
  Exfiltration Loss ........         0.000         0.000
  Initial Stored Volume ....         0.000         0.000
  Final Stored Volume ......         0.000         0.000
  Continuity Error (%) .....        -0.002
  
  
  ********************************
  Highest Flow Instability Indexes
  ********************************
  All links are stable.
  
  
  *********************************
  Most Frequent Nonconverging Nodes
  *********************************
  Node 10208 (0.09%)
  Node 82309 (0.06%)
  Node 16109 (0.04%)
  Node 80608 (0.04%)
  Node 16009 (0.01%)
  
  
  *************************
  Routing Time Step Summary
  *************************
  Minimum Time Step           :     1.00 sec
  Average Time Step           :     1.00 sec
  Maximum Time Step           :     1.00 sec
  % of Time in Steady State   :     0.00
  Average Iterations per Step :     2.02
  % of Steps Not Converging   :     0.09
  
  
  ******************
  Node Depth Summary
  ******************
  
  ---------------------------------------------------------------------------------
                                 Average  Maximum  Maximum  Time of Max    Reported
                                   Depth    Depth      HGL   Occurrence   Max Depth
  Node                 Type         Feet     Feet     Feet  days hr:min        Feet
  ---------------------------------------------------------------------------------
  80408                JUNCTION     5.40    13.40   138.00     0  00:00       13.40
  80608                JUNCTION     6.74    16.70   135.00     0  00:00       16.70
  81009                JUNCTION     0.36     0.95   129.15     0  00:15        0.95
  81309                JUNCTION     0.51     1.33   118.83     0  00:15        1.33
  82309                JUNCTION     8.17    20.77   133.07     0  00:01       20.32
  10309                JUNCTION     1.72     4.35   105.95     0  00:15        4.35
  15009                JUNCTION     0.38     0.99   112.49     0  00:15        0.99
  16009                JUNCTION     3.71    12.36   114.36     0  00:01        9.25
  16109                JUNCTION     4.83    15.16   117.96     0  00:01       12.03
  10208                OUTFALL      1.02     2.53    92.43     0  00:15        2.53
  
  
  *******************
  Node Inflow Summary
  *******************
  
  -------------------------------------------------------------------------------------------------
                                  Maximum  Maximum                  Lateral       Total        Flow
                                  Lateral    Total  Time of Max      Inflow      Inflow     Balance
                                   Inflow   Inflow   Occurrence      Volume      Volume       Error
  Node                 Type           CFS      CFS  days hr:min    10^6 gal    10^6 gal     Percent
  -------------------------------------------------------------------------------------------------
  80408                JUNCTION   4500.00  4500.00     0  00:15         364         364      -0.000
  80608                JUNCTION      0.00   254.17     0  00:00           0        19.5       0.001
  81009                JUNCTION     50.00    50.00     0  00:15        4.04        4.04      -0.000
  81309                JUNCTION      0.00    50.00     0  00:15           0        4.04       0.000
  82309                JUNCTION     40.00   243.20     0  03:07        3.23          21      -0.016
  10309                JUNCTION      0.00   290.57     0  00:15           0          25      -0.002
  15009                JUNCTION      0.00    50.02     0  00:15           0        4.04      -0.000
  16009                JUNCTION      0.00   290.57     0  00:15           0          25      -0.006
  16109                JUNCTION      0.00   243.21     0  03:07           0          21       0.001
  10208                OUTFALL       0.00   290.57     0  00:15           0          25       0.000
  
  
  **********************
  Node Surcharge Summary
  **********************
  
  Surcharging occurs when water rises above the top of the highest conduit.
  ---------------------------------------------------------------------
                                               Max. Height   Min. Depth
                                   Hours       Above Crown    Below Rim
  Node                 Type      Surcharged           Feet         Feet
  ---------------------------------------------------------------------
  80408                JUNCTION        3.22          9.400        0.000
  80608                JUNCTION        3.23         12.700        0.000
  82309                JUNCTION        3.23         14.565       21.935
  10309                JUNCTION        2.96          0.352        5.048
  16009                JUNCTION        3.24          8.359        5.641
  16109                JUNCTION        3.24         11.156        7.044
  
  
  *********************
  Node Flooding Summary
  *********************
  
  Flooding refers to all water that overflows a node, whether it ponds or not.
  --------------------------------------------------------------------------
                                                             Total   Maximum
                                 Maximum   Time of Max       Flood    Ponded
                        Hours       Rate    Occurrence      Volume     Depth
  Node                 Flooded       CFS   days hr:min    10^6 gal      Feet
  --------------------------------------------------------------------------
  80408                   3.22   4276.79      0  00:15     344.035     0.000
  80608                   3.02     49.93      0  00:00       1.756     0.000
  
  
  ***********************
  Outfall Loading Summary
  ***********************
  
  -----------------------------------------------------------
                         Flow       Avg       Max       Total
                         Freq      Flow      Flow      Volume
  Outfall Node           Pcnt       CFS       CFS    10^6 gal
  -----------------------------------------------------------
  10208                 44.80    259.21    290.57      25.013
  -----------------------------------------------------------
  System                44.80    259.21    290.57      25.013
  
  
  ********************
  Link Flow Summary
  ********************
  
  -----------------------------------------------------------------------------
                                 Maximum  Time of Max   Maximum    Max/    Max/
                                  |Flow|   Occurrence   |Veloc|    Full    Full
  Link                 Type          CFS  days hr:min    ft/sec    Flow   Depth
  -----------------------------------------------------------------------------
  8040                 CONDUIT    254.17     0  00:00     24.59    0.81    1.00
  8060                 CONDUIT    236.45     0  03:14     21.00    0.97    1.00
  8100                 CONDUIT     50.00     0  00:15     17.04    0.12    0.28
  8130                 CONDUIT     50.02     0  00:15     16.58    0.16    0.29
  1030                 CONDUIT    290.57     0  00:15     33.23    0.73    0.86
  1570                 CONDUIT     50.02     0  00:15      3.98    0.13    1.00
  1600                 CONDUIT    243.22     0  03:07     19.35    2.18    1.00
  1630                 CONDUIT    290.57     0  00:15     23.12    3.69    1.00
  1602                 CONDUIT    243.21     0  03:07     19.35    1.43    1.00
  
  
  ***************************
  Flow Classification Summary
  ***************************
  
  -------------------------------------------------------------------------------------
                      Adjusted    ---------- Fraction of Time in Flow Class ---------- 
                       /Actual         Up    Down  Sub   Sup   Up    Down  Norm  Inlet 
  Conduit               Length    Dry  Dry   Dry   Crit  Crit  Crit  Crit  Ltd   Ctrl  
  -------------------------------------------------------------------------------------
  8040                    1.00   0.00  0.59  0.00  0.41  0.00  0.00  0.00  0.60  0.00
  8060                    1.00   0.00  0.00  0.00  0.40  0.00  0.00  0.60  0.00  0.00
  8100                    1.00   0.59  0.00  0.00  0.00  0.41  0.00  0.00  1.00  0.00
  8130                    1.00   0.58  0.01  0.00  0.00  0.41  0.00  0.00  0.60  0.00
  1030                    1.00   0.54  0.00  0.00  0.00  0.46  0.00  0.00  0.00  0.00
  1570                    1.00   0.54  0.04  0.00  0.42  0.00  0.00  0.00  1.00  0.00
  1600                    1.00   0.54  0.02  0.00  0.43  0.00  0.00  0.00  0.59  0.00
  1630                    1.00   0.54  0.00  0.00  0.44  0.02  0.00  0.00  0.54  0.00
  1602                    1.00   0.56  0.01  0.00  0.42  0.00  0.00  0.00  0.59  0.00
  
  
  *************************
  Conduit Surcharge Summary
  *************************
  
  ----------------------------------------------------------------------------
                                                           Hours        Hours 
                         --------- Hours Full --------   Above Full   Capacity
  Conduit                Both Ends  Upstream  Dnstream   Normal Flow   Limited
  ----------------------------------------------------------------------------
  8040                        3.22      3.22      3.23      0.01         0.01
  8060                        3.23      3.23      3.23      0.01         0.01
  1030                        0.01      2.96      0.01      0.01         0.01
  1570                        0.01      0.01      3.24      0.01         0.01
  1600                        3.23      3.24      3.24      3.24         3.23
  1630                        2.96      3.24      2.96      3.24         3.23
  1602                        3.23      3.23      3.24      3.23         3.23
  

  Analysis begun on:  Tue Jun 23 21:07:16 2026
  Analysis ended on:  Tue Jun 23 21:07:16 2026
  Total elapsed time: < 1 sec