
  EPA STORM WATER MANAGEMENT MODEL - VERSION 5.2 (Build 5.2.4)
  ------------------------------------------------------------

  Example 7 of Extran Manual - 
  Type 2 Pump 
  
  ****************
  Analysis Options
  ****************
  Flow Units ............... CFS
  Process Models:
    Rainfall/Runoff ........ NO
    RDII ................... NO
    Snowmelt ............... NO
    Groundwater ............ NO
    Flow Routing ........... YES
    Ponding Allowed ........ NO
    Water Quality .......... NO
  Flow Routing Method ...... DYNWAVE
  Surcharge Method ......... EXTRAN
  Starting Date ............ 01/01/2002 00:00:00
  Ending Date .............. 01/01/2002 08:00:00
  Antecedent Dry Days ...... 0.0
  Report Time Step ......... 00:05:00
  Routing Time Step ........ 20.00 sec
  Variable Time Step ....... NO
  Maximum Trials ........... 8
  Number of Threads ........ 1
  Head Tolerance ........... 0.005000 ft
  
  
  *********************
  Control Actions Taken
  *********************
   01/01/2002: 00:00:00 Link 3 setting changed to   0.00 by Control PUMP_ON1
   01/01/2002: 01:25:00 Link 3 setting changed to   1.00 by Control PUMP_ON
   01/01/2002: 02:25:00 Link 3 setting changed to   0.00 by Control PUMP_OFF
   01/01/2002: 03:25:00 Link 3 setting changed to   1.00 by Control PUMP_ON_2_TIME
   01/01/2002: 04:25:00 Link 3 setting changed to   0.50 by Control PUMP_OFF_2_TIME

  
  **************************        Volume        Volume
  Flow Routing Continuity        acre-feet      10^6 gal
  **************************     ---------     ---------
  Dry Weather Inflow .......         0.000         0.000
  Wet Weather Inflow .......         0.000         0.000
  Groundwater Inflow .......         0.000         0.000
  RDII Inflow ..............         0.000         0.000
  External Inflow ..........        33.470        10.907
  External Outflow .........        31.105        10.136
  Flooding Loss ............         2.268         0.739
  Evaporation Loss .........         0.000         0.000
  Exfiltration Loss ........         0.000         0.000
  Initial Stored Volume ....         0.000         0.000
  Final Stored Volume ......         0.088         0.029
  Continuity Error (%) .....         0.026
  
  
  *************************
  Highest Continuity Errors
  *************************
  Node 80608 (1.42%)
  
  
  ********************************
  Highest Flow Instability Indexes
  ********************************
  Link 8060 (2)
  Link 8040 (1)
  Link 1602 (1)
  
  
  *********************************
  Most Frequent Nonconverging Nodes
  *********************************
  Node 10208 (3.82%)
  Node 82309 (3.54%)
  Node 80608 (2.01%)
  Node 80408 (0.69%)
  
  
  *************************
  Routing Time Step Summary
  *************************
  Minimum Time Step           :    20.00 sec
  Average Time Step           :    20.00 sec
  Maximum Time Step           :    20.00 sec
  % of Time in Steady State   :     0.00
  Average Iterations per Step :     2.39
  % of Steps Not Converging   :     3.82
  
  
  ******************
  Node Depth Summary
  ******************
  
  ---------------------------------------------------------------------------------
                                 Average  Maximum  Maximum  Time of Max    Reported
                                   Depth    Depth      HGL   Occurrence   Max Depth
  Node                 Type         Feet     Feet     Feet  days hr:min        Feet
  ---------------------------------------------------------------------------------
  80408                JUNCTION     4.11    13.40   138.00     0  00:38       12.76
  80608                JUNCTION     5.56    16.70   135.00     0  00:38       16.70
  81009                JUNCTION     1.11     2.85   131.05     0  00:32        2.84
  81309                JUNCTION     1.31     3.10   120.60     0  01:00        3.10
  82309                JUNCTION     7.38    22.32   134.62     0  00:38       21.61
  10309                JUNCTION     1.47     2.79   104.39     0  02:06        2.79
  15009                JUNCTION     1.19     2.59   114.09     0  01:54        2.59
  16009                JUNCTION     1.54     2.98   104.98     0  02:00        2.98
  16109                JUNCTION     1.30     2.97   105.77     0  02:32        2.97
  10208                OUTFALL      1.30     2.57    92.47     0  02:07        2.57
  
  
  *******************
  Node Inflow Summary
  *******************
  
  -------------------------------------------------------------------------------------------------
                                  Maximum  Maximum                  Lateral       Total        Flow
                                  Lateral    Total  Time of Max      Inflow      Inflow     Balance
                                   Inflow   Inflow   Occurrence      Volume      Volume       Error
  Node                 Type           CFS      CFS  days hr:min    10^6 gal    10^6 gal     Percent
  -------------------------------------------------------------------------------------------------
  80408                JUNCTION     45.00    45.00     0  00:15        3.64        3.64      -0.344
  80608                JUNCTION      0.00    46.83     0  00:22           0        3.64       1.435
  81009                JUNCTION     50.00    50.00     0  00:15        4.04        4.04      -0.539
  81309                JUNCTION      0.00    53.79     0  00:40           0        4.06       0.297
  82309                JUNCTION     40.00    83.74     0  00:32        3.23        6.09      -0.885
  10309                JUNCTION      0.00   126.94     0  01:59           0        10.1       0.113
  15009                JUNCTION      0.00    56.14     0  01:33           0        4.33       0.248
  16009                JUNCTION      0.00   126.96     0  01:56           0        10.2       0.157
  16109                JUNCTION      0.00    72.51     0  02:25           0        5.86       0.315
  10208                OUTFALL       0.00   126.88     0  02:07           0        10.1       0.000
  
  
  **********************
  Node Surcharge Summary
  **********************
  
  Surcharging occurs when water rises above the top of the highest conduit.
  ---------------------------------------------------------------------
                                               Max. Height   Min. Depth
                                   Hours       Above Crown    Below Rim
  Node                 Type      Surcharged           Feet         Feet
  ---------------------------------------------------------------------
  80408                JUNCTION        2.46          9.400        0.000
  80608                JUNCTION        2.60         12.700        0.000
  82309                JUNCTION        2.74         16.125       20.375
  
  
  *********************
  Node Flooding Summary
  *********************
  
  Flooding refers to all water that overflows a node, whether it ponds or not.
  --------------------------------------------------------------------------
                                                             Total   Maximum
                                 Maximum   Time of Max       Flood    Ponded
                        Hours       Rate    Occurrence      Volume     Depth
  Node                 Flooded       CFS   days hr:min    10^6 gal      Feet
  --------------------------------------------------------------------------
  80408                   0.02     19.31      0  00:38       0.005     0.000
  80608                   2.41     18.44      0  00:39       0.734     0.000
  
  
  ***********************
  Outfall Loading Summary
  ***********************
  
  -----------------------------------------------------------
                         Flow       Avg       Max       Total
                         Freq      Flow      Flow      Volume
  Outfall Node           Pcnt       CFS       CFS    10^6 gal
  -----------------------------------------------------------
  10208                 94.24     49.93    126.88      10.135
  -----------------------------------------------------------
  System                94.24     49.93    126.88      10.135
  
  
  ********************
  Link Flow Summary
  ********************
  
  -----------------------------------------------------------------------------
                                 Maximum  Time of Max   Maximum    Max/    Max/
                                  |Flow|   Occurrence   |Veloc|    Full    Full
  Link                 Type          CFS  days hr:min    ft/sec    Flow   Depth
  -----------------------------------------------------------------------------
  8040                 CONDUIT     46.83     0  00:22      7.13    0.64    1.00
  8060                 CONDUIT     43.74     0  00:32      4.78    0.82    1.00
  8100                 CONDUIT     53.79     0  00:40      6.75    0.69    0.64
  8130                 CONDUIT     51.14     0  01:33      5.55    0.72    0.62
  1030                 CONDUIT    126.88     0  02:07      5.89    0.04    0.30
  1570                 CONDUIT     55.55     0  01:54      4.60    0.45    0.51
  1600                 CONDUIT     72.11     0  02:38      5.42    0.49    0.50
  1630                 CONDUIT    126.94     0  01:59      5.78    0.05    0.32
  1602                 CONDUIT     72.51     0  02:25      4.33    1.67    0.80
  3                    PUMP         5.00     0  01:25              0.25
  
  
  ***************************
  Flow Classification Summary
  ***************************
  
  -------------------------------------------------------------------------------------
                      Adjusted    ---------- Fraction of Time in Flow Class ---------- 
                       /Actual         Up    Down  Sub   Sup   Up    Down  Norm  Inlet 
  Conduit               Length    Dry  Dry   Dry   Crit  Crit  Crit  Crit  Ltd   Ctrl  
  -------------------------------------------------------------------------------------
  8040                    1.00   0.00  0.00  0.00  0.97  0.03  0.00  0.00  0.63  0.00
  8060                    1.00   0.00  0.00  0.00  0.43  0.00  0.00  0.57  0.07  0.00
  8100                    1.00   0.00  0.00  0.00  0.97  0.03  0.00  0.00  0.92  0.00
  8130                    1.00   0.00  0.00  0.00  0.97  0.02  0.00  0.00  0.59  0.00
  1030                    1.00   0.03  0.00  0.00  0.97  0.00  0.00  0.00  0.00  0.00
  1570                    1.00   0.00  0.00  0.00  1.00  0.00  0.00  0.00  0.95  0.00
  1600                    1.00   0.00  0.00  0.00  0.98  0.02  0.00  0.00  0.43  0.00
  1630                    1.00   0.00  0.00  0.00  0.97  0.03  0.00  0.00  0.43  0.00
  1602                    1.00   0.00  0.00  0.00  1.00  0.00  0.00  0.00  0.48  0.00
  
  
  *************************
  Conduit Surcharge Summary
  *************************
  
  ----------------------------------------------------------------------------
                                                           Hours        Hours 
                         --------- Hours Full --------   Above Full   Capacity
  Conduit                Both Ends  Upstream  Dnstream   Normal Flow   Limited
  ----------------------------------------------------------------------------
  8040                        2.46      2.46      2.60      0.01         0.01
  8060                        2.60      2.60      2.74      0.01         0.01
  1602                        0.01      2.98      0.01      2.89         0.01
  
  
  ***************
  Pumping Summary
  ***************
  
  ---------------------------------------------------------------------------------------------------------
                                                  Min       Avg       Max     Total     Power    % Time Off
                        Percent   Number of      Flow      Flow      Flow    Volume     Usage    Pump Curve
  Pump                 Utilized   Start-Ups       CFS       CFS       CFS  10^6 gal     Kw-hr    Low   High
  ---------------------------------------------------------------------------------------------------------
  3                       69.79           2      0.00      1.87      5.00     0.282      8.71    0.0  100.0
  

  Analysis begun on:  Tue Jun 23 21:07:17 2026
  Analysis ended on:  Tue Jun 23 21:07:17 2026
  Total elapsed time: < 1 sec