
  EPA STORM WATER MANAGEMENT MODEL - VERSION 5.2 (Build 5.2.4)
  ------------------------------------------------------------

  Example 3 of Extran Manual - 
  Sump Orifice 
  
  ****************
  Analysis Options
  ****************
  Flow Units ............... CFS
  Process Models:
    Rainfall/Runoff ........ NO
    RDII ................... NO
    Snowmelt ............... NO
    Groundwater ............ NO
    Flow Routing ........... YES
    Ponding Allowed ........ NO
    Water Quality .......... NO
  Flow Routing Method ...... DYNWAVE
  Surcharge Method ......... EXTRAN
  Starting Date ............ 01/01/2002 00:00:00
  Ending Date .............. 01/01/2002 08:00:00
  Antecedent Dry Days ...... 0.0
  Report Time Step ......... 00:05:00
  Routing Time Step ........ 20.00 sec
  Variable Time Step ....... NO
  Maximum Trials ........... 8
  Number of Threads ........ 1
  Head Tolerance ........... 0.005000 ft
  
  
  **************************        Volume        Volume
  Flow Routing Continuity        acre-feet      10^6 gal
  **************************     ---------     ---------
  Dry Weather Inflow .......         0.000         0.000
  Wet Weather Inflow .......         0.000         0.000
  Groundwater Inflow .......         0.000         0.000
  RDII Inflow ..............         0.000         0.000
  External Inflow ..........        33.470        10.907
  External Outflow .........        33.373        10.875
  Flooding Loss ............         0.000         0.000
  Evaporation Loss .........         0.000         0.000
  Exfiltration Loss ........         0.000         0.000
  Initial Stored Volume ....         0.000         0.000
  Final Stored Volume ......         0.081         0.026
  Continuity Error (%) .....         0.050
  
  
  *************************
  Highest Continuity Errors
  *************************
  Node 80608 (1.99%)
  
  
  ********************************
  Highest Flow Instability Indexes
  ********************************
  All links are stable.
  
  
  *********************************
  Most Frequent Nonconverging Nodes
  *********************************
  Node 10208 (1.81%)
  Node 82309 (1.46%)
  Node 80608 (0.49%)
  Node 15009 (0.07%)
  
  
  *************************
  Routing Time Step Summary
  *************************
  Minimum Time Step           :    20.00 sec
  Average Time Step           :    20.00 sec
  Maximum Time Step           :    20.00 sec
  % of Time in Steady State   :     0.00
  Average Iterations per Step :     2.22
  % of Steps Not Converging   :     1.81
  
  
  ******************
  Node Depth Summary
  ******************
  
  ---------------------------------------------------------------------------------
                                 Average  Maximum  Maximum  Time of Max    Reported
                                   Depth    Depth      HGL   Occurrence   Max Depth
  Node                 Type         Feet     Feet     Feet  days hr:min        Feet
  ---------------------------------------------------------------------------------
  80408                JUNCTION     0.94     2.50   127.10     0  03:00        2.50
  80608                JUNCTION     2.15     7.04   125.34     0  01:05        6.62
  81009                JUNCTION     1.11     2.89   131.09     0  00:33        2.89
  81309                JUNCTION     1.23     2.80   120.30     0  01:26        2.80
  82309                JUNCTION     3.45     9.91   122.21     0  03:00        9.91
  10309                JUNCTION     1.50     2.86   104.46     0  03:00        2.86
  15009                JUNCTION     1.88     4.32   115.82     0  03:00        4.32
  16009                JUNCTION     1.57     3.05   105.05     0  03:00        3.05
  16109                JUNCTION     0.01     0.03   102.83     0  01:05        0.03
  10208                OUTFALL      1.33     2.63    92.53     0  03:00        2.63
  
  
  *******************
  Node Inflow Summary
  *******************
  
  -------------------------------------------------------------------------------------------------
                                  Maximum  Maximum                  Lateral       Total        Flow
                                  Lateral    Total  Time of Max      Inflow      Inflow     Balance
                                   Inflow   Inflow   Occurrence      Volume      Volume       Error
  Node                 Type           CFS      CFS  days hr:min    10^6 gal    10^6 gal     Percent
  -------------------------------------------------------------------------------------------------
  80408                JUNCTION     45.00    45.00     0  00:15        3.64        3.64      -0.188
  80608                JUNCTION      0.00    46.59     0  03:02           0        3.64       2.036
  81009                JUNCTION     50.00    50.00     0  00:15        4.04        4.04      -0.547
  81309                JUNCTION      0.00    52.71     0  00:46           0        4.06       0.603
  82309                JUNCTION     40.00    87.42     0  00:40        3.23         6.8      -0.767
  10309                JUNCTION      0.00   134.99     0  03:00           0        10.9       0.086
  15009                JUNCTION      0.00   104.29     0  01:07           0        8.44      -0.122
  16009                JUNCTION      0.00   134.99     0  03:00           0        10.9       0.159
  16109                JUNCTION      0.00    30.83     0  03:00           0        2.45      -0.001
  10208                OUTFALL       0.00   134.99     0  03:00           0        10.9       0.000
  
  
  **********************
  Node Surcharge Summary
  **********************
  
  Surcharging occurs when water rises above the top of the highest conduit.
  ---------------------------------------------------------------------
                                               Max. Height   Min. Depth
                                   Hours       Above Crown    Below Rim
  Node                 Type      Surcharged           Feet         Feet
  ---------------------------------------------------------------------
  80608                JUNCTION        2.00          3.035        9.665
  82309                JUNCTION        2.32          3.710       32.790
  
  
  *********************
  Node Flooding Summary
  *********************
  
  No nodes were flooded.
  
  
  ***********************
  Outfall Loading Summary
  ***********************
  
  -----------------------------------------------------------
                         Flow       Avg       Max       Total
                         Freq      Flow      Flow      Volume
  Outfall Node           Pcnt       CFS       CFS    10^6 gal
  -----------------------------------------------------------
  10208                 96.25     52.44    134.99      10.874
  -----------------------------------------------------------
  System                96.25     52.44    134.99      10.874
  
  
  ********************
  Link Flow Summary
  ********************
  
  -----------------------------------------------------------------------------
                                 Maximum  Time of Max   Maximum    Max/    Max/
                                  |Flow|   Occurrence   |Veloc|    Full    Full
  Link                 Type          CFS  days hr:min    ft/sec    Flow   Depth
  -----------------------------------------------------------------------------
  8040                 CONDUIT     46.59     0  03:02      7.13    0.63    0.81
  8060                 CONDUIT     47.42     0  00:40      5.13    0.89    1.00
  8100                 CONDUIT     52.71     0  00:46      7.16    0.68    0.60
  8130                 CONDUIT     50.01     0  01:26      4.23    0.71    0.79
  1030                 CONDUIT    134.99     0  03:00      5.98    0.04    0.30
  1570                 CONDUIT    104.17     0  03:00     19.37    0.84    0.67
  1600                 DUMMY       30.83     0  03:00
  1630                 CONDUIT    134.99     0  03:00      5.45    0.06    0.33
  1602                 CONDUIT     30.83     0  03:00      3.12    0.71    0.50
  90010                ORIFICE     54.39     0  01:07                          
  
  
  ***************************
  Flow Classification Summary
  ***************************
  
  -------------------------------------------------------------------------------------
                      Adjusted    ---------- Fraction of Time in Flow Class ---------- 
                       /Actual         Up    Down  Sub   Sup   Up    Down  Norm  Inlet 
  Conduit               Length    Dry  Dry   Dry   Crit  Crit  Crit  Crit  Ltd   Ctrl  
  -------------------------------------------------------------------------------------
  8040                    1.00   0.00  0.00  0.00  0.97  0.03  0.00  0.00  0.71  0.00
  8060                    1.00   0.00  0.00  0.00  0.39  0.00  0.00  0.61  0.07  0.00
  8100                    1.00   0.00  0.00  0.00  0.97  0.03  0.00  0.00  0.90  0.00
  8130                    1.00   0.00  0.00  0.00  1.00  0.00  0.00  0.00  1.00  0.00
  1030                    1.00   0.00  0.00  0.00  1.00  0.00  0.00  0.00  0.00  0.00
  1570                    1.00   0.00  0.00  0.00  0.99  0.01  0.00  0.00  0.54  0.00
  1630                    1.00   0.00  0.00  0.00  0.97  0.03  0.00  0.00  0.45  0.00
  1602                    1.00   0.00  0.00  0.00  1.00  0.00  0.00  0.00  0.00  0.00
  
  
  *************************
  Conduit Surcharge Summary
  *************************
  
  ----------------------------------------------------------------------------
                                                           Hours        Hours 
                         --------- Hours Full --------   Above Full   Capacity
  Conduit                Both Ends  Upstream  Dnstream   Normal Flow   Limited
  ----------------------------------------------------------------------------
  8040                        0.01      0.01      2.00      0.01         0.01
  8060                        1.99      1.99      2.32      0.01         0.01
  1602                        0.01      2.66      0.01      0.01         0.01
  

  Analysis begun on:  Tue Jun 23 21:07:17 2026
  Analysis ended on:  Tue Jun 23 21:07:17 2026
  Total elapsed time: < 1 sec