
  EPA STORM WATER MANAGEMENT MODEL - VERSION 5.2 (Build 5.2.4)
  ------------------------------------------------------------

  Example 1 of Extran Manual 
  
  ****************
  Analysis Options
  ****************
  Flow Units ............... CFS
  Process Models:
    Rainfall/Runoff ........ NO
    RDII ................... NO
    Snowmelt ............... NO
    Groundwater ............ NO
    Flow Routing ........... YES
    Ponding Allowed ........ NO
    Water Quality .......... NO
  Flow Routing Method ...... DYNWAVE
  Surcharge Method ......... EXTRAN
  Starting Date ............ 01/01/2000 00:00:00
  Ending Date .............. 01/01/2050 08:00:00
  Antecedent Dry Days ...... 0.0
  Report Time Step ......... 00:15:00
  Routing Time Step ........ 30.00 sec
  Variable Time Step ....... YES
  Maximum Trials ........... 8
  Number of Threads ........ 1
  Head Tolerance ........... 0.005000 ft
  
  
  **************************        Volume        Volume
  Flow Routing Continuity        acre-feet      10^6 gal
  **************************     ---------     ---------
  Dry Weather Inflow .......         0.000         0.000
  Wet Weather Inflow .......         0.000         0.000
  Groundwater Inflow .......         0.000         0.000
  RDII Inflow ..............         0.000         0.000
  External Inflow ..........        33.437        10.896
  External Outflow .........        30.769        10.026
  Flooding Loss ............         2.636         0.859
  Evaporation Loss .........         0.000         0.000
  Exfiltration Loss ........         0.000         0.000
  Initial Stored Volume ....         0.000         0.000
  Final Stored Volume ......         0.000         0.000
  Continuity Error (%) .....         0.095
  
  
  *************************
  Highest Continuity Errors
  *************************
  Node 80608 (1.62%)
  
  
  ***************************
  Time-Step Critical Elements
  ***************************
  None
  
  
  ********************************
  Highest Flow Instability Indexes
  ********************************
  All links are stable.
  
  
  *********************************
  Most Frequent Nonconverging Nodes
  *********************************
  Convergence obtained at all time steps.
  
  
  *************************
  Routing Time Step Summary
  *************************
  Minimum Time Step           :    10.77 sec
  Average Time Step           :    30.00 sec
  Maximum Time Step           :    30.00 sec
  % of Time in Steady State   :     0.00
  Average Iterations per Step :     2.00
  % of Steps Not Converging   :     0.00
  Time Step Frequencies       :
     30.000 - 13.228 sec      :   100.00 %
     13.228 -  5.833 sec      :     0.00 %
      5.833 -  2.572 sec      :     0.00 %
      2.572 -  1.134 sec      :     0.00 %
      1.134 -  0.500 sec      :     0.00 %
  
  
  ******************
  Node Depth Summary
  ******************
  
  ---------------------------------------------------------------------------------
                                 Average  Maximum  Maximum  Time of Max    Reported
                                   Depth    Depth      HGL   Occurrence   Max Depth
  Node                 Type         Feet     Feet     Feet  days hr:min        Feet
  ---------------------------------------------------------------------------------
  80408                JUNCTION     0.00    13.40   138.00     0  00:38       12.75
  80608                JUNCTION     0.00    16.70   135.00     0  00:38       16.70
  81009                JUNCTION     0.00     2.85   131.05     0  00:32        2.85
  81309                JUNCTION     0.00     3.10   120.60     0  01:00        3.10
  82309                JUNCTION     0.00    22.17   134.47     0  00:38       21.47
  10309                JUNCTION     0.01     2.76   104.36     0  01:48        2.76
  15009                JUNCTION     0.00     2.45   113.95     0  01:35        2.45
  16009                JUNCTION     0.00     2.95   104.95     0  01:41        2.95
  16109                JUNCTION     0.00     2.96   105.76     0  01:49        2.96
  10208                OUTFALL      0.00     2.53    92.43     0  01:48        2.53
  
  
  *******************
  Node Inflow Summary
  *******************
  
  -------------------------------------------------------------------------------------------------
                                  Maximum  Maximum                  Lateral       Total        Flow
                                  Lateral    Total  Time of Max      Inflow      Inflow     Balance
                                   Inflow   Inflow   Occurrence      Volume      Volume       Error
  Node                 Type           CFS      CFS  days hr:min    10^6 gal    10^6 gal     Percent
  -------------------------------------------------------------------------------------------------
  80408                JUNCTION     45.00    45.00     0  00:15        3.63        3.63      -0.379
  80608                JUNCTION      0.00    46.86     0  00:22           0        3.64       1.643
  81009                JUNCTION     50.00    50.00     0  00:15        4.04        4.04      -0.533
  81309                JUNCTION      0.00    53.86     0  00:40           0        4.06       0.298
  82309                JUNCTION     40.00    83.62     0  00:32        3.23        5.96      -0.951
  10309                JUNCTION      0.00   122.42     0  01:40           0          10       0.063
  15009                JUNCTION      0.00    51.05     0  01:13           0        4.04       0.080
  16009                JUNCTION      0.00   122.44     0  01:37           0          10       0.097
  16109                JUNCTION      0.00    71.99     0  01:49           0        6.01       0.213
  10208                OUTFALL       0.00   122.36     0  01:48           0          10       0.000
  
  
  **********************
  Node Surcharge Summary
  **********************
  
  Surcharging occurs when water rises above the top of the highest conduit.
  ---------------------------------------------------------------------
                                               Max. Height   Min. Depth
                                   Hours       Above Crown    Below Rim
  Node                 Type      Surcharged           Feet         Feet
  ---------------------------------------------------------------------
  80408                JUNCTION        2.46          9.400        0.000
  80608                JUNCTION        2.59         12.700        0.000
  82309                JUNCTION        2.74         15.971       20.529
  
  
  *********************
  Node Flooding Summary
  *********************
  
  Flooding refers to all water that overflows a node, whether it ponds or not.
  --------------------------------------------------------------------------
                                                             Total   Maximum
                                 Maximum   Time of Max       Flood    Ponded
                        Hours       Rate    Occurrence      Volume     Depth
  Node                 Flooded       CFS   days hr:min    10^6 gal      Feet
  --------------------------------------------------------------------------
  80408                   0.01     17.84      0  00:38       0.004     0.000
  80608                   2.41     18.89      0  00:39       0.855     0.000
  
  
  ***********************
  Outfall Loading Summary
  ***********************
  
  -----------------------------------------------------------
                         Flow       Avg       Max       Total
                         Freq      Flow      Flow      Volume
  Outfall Node           Pcnt       CFS       CFS    10^6 gal
  -----------------------------------------------------------
  10208                  0.01     16.28    122.36      10.026
  -----------------------------------------------------------
  System                 0.01     16.28    122.36      10.026
  
  
  ********************
  Link Flow Summary
  ********************
  
  -----------------------------------------------------------------------------
                                 Maximum  Time of Max   Maximum    Max/    Max/
                                  |Flow|   Occurrence   |Veloc|    Full    Full
  Link                 Type          CFS  days hr:min    ft/sec    Flow   Depth
  -----------------------------------------------------------------------------
  8040                 CONDUIT     46.86     0  00:22      7.22    0.64    1.00
  8060                 CONDUIT     43.64     0  03:15      4.84    0.82    1.00
  8100                 CONDUIT     53.86     0  00:40      6.49    0.69    0.64
  8130                 CONDUIT     51.05     0  01:13      5.54    0.72    0.61
  1030                 CONDUIT    122.36     0  01:48      5.84    0.04    0.29
  1570                 CONDUIT     50.49     0  01:35      4.37    0.41    0.49
  1600                 CONDUIT     71.99     0  01:58      5.43    0.49    0.49
  1630                 CONDUIT    122.42     0  01:40      5.79    0.05    0.32
  1602                 CONDUIT     71.99     0  01:49      4.33    1.66    0.80
  
  
  ***************************
  Flow Classification Summary
  ***************************
  
  -------------------------------------------------------------------------------------
                      Adjusted    ---------- Fraction of Time in Flow Class ---------- 
                       /Actual         Up    Down  Sub   Sup   Up    Down  Norm  Inlet 
  Conduit               Length    Dry  Dry   Dry   Crit  Crit  Crit  Crit  Ltd   Ctrl  
  -------------------------------------------------------------------------------------
  8040                    1.00   0.00  1.00  0.00  0.00  0.00  0.00  0.00  1.00  0.00
  8060                    1.00   0.00  0.00  0.00  0.00  0.00  0.00  1.00  0.00  0.00
  8100                    1.00   1.00  0.00  0.00  0.00  0.00  0.00  0.00  1.00  0.00
  8130                    1.00   1.00  0.00  0.00  0.00  0.00  0.00  0.00  1.00  0.00
  1030                    1.00   0.00  0.00  0.00  1.00  0.00  0.00  0.00  0.00  0.00
  1570                    1.00   0.00  1.00  0.00  0.00  0.00  0.00  0.00  1.00  0.00
  1600                    1.00   0.00  1.00  0.00  0.00  0.00  0.00  0.00  1.00  0.00
  1630                    1.00   0.00  0.00  0.00  1.00  0.00  0.00  0.00  1.00  0.00
  1602                    1.00   0.00  0.00  0.00  1.00  0.00  0.00  0.00  0.00  0.00
  
  
  *************************
  Conduit Surcharge Summary
  *************************
  
  ----------------------------------------------------------------------------
                                                           Hours        Hours 
                         --------- Hours Full --------   Above Full   Capacity
  Conduit                Both Ends  Upstream  Dnstream   Normal Flow   Limited
  ----------------------------------------------------------------------------
  8040                        2.45      2.45      2.59      0.01         0.01
  8060                        2.59      2.59      2.74      0.01         0.01
  1602                        0.01      2.98      0.01      2.90         0.01
  

  Analysis begun on:  Tue Jun 23 21:07:18 2026
  Analysis ended on:  Tue Jun 23 21:10:42 2026
  Total elapsed time: 00:03:24