
  EPA STORM WATER MANAGEMENT MODEL - VERSION 5.2 (Build 5.2.4)
  ------------------------------------------------------------

  WARNING 04: minimum elevation drop used for Conduit Giddons24
  WARNING 04: minimum elevation drop used for Conduit GidBas24
  WARNING 04: minimum elevation drop used for Conduit BasFri12
  WARNING 04: minimum elevation drop used for Conduit Frierson1
  WARNING 04: minimum elevation drop used for Conduit Frierson2
  WARNING 04: minimum elevation drop used for Conduit 222
  WARNING 04: minimum elevation drop used for Conduit Fr30#2
  WARNING 04: minimum elevation drop used for Conduit Fr30#1
  WARNING 04: minimum elevation drop used for Conduit Shadow24
  WARNING 04: minimum elevation drop used for Conduit Shadow30
  WARNING 04: minimum elevation drop used for Conduit Shad18.2
  WARNING 04: minimum elevation drop used for Conduit Shad18.1
  WARNING 04: minimum elevation drop used for Conduit McBerry30
  WARNING 04: minimum elevation drop used for Conduit Wilder30
  WARNING 04: minimum elevation drop used for Conduit McBerry18
  WARNING 04: minimum elevation drop used for Conduit Wilder18
  WARNING 04: minimum elevation drop used for Conduit Caracas36
  WARNING 04: minimum elevation drop used for Conduit Cararas48
  WARNING 04: minimum elevation drop used for Conduit Elli18.3
  WARNING 04: minimum elevation drop used for Conduit Elli18.1
  WARNING 04: minimum elevation drop used for Conduit Elli18.2
  WARNING 04: minimum elevation drop used for Conduit Elli24
  WARNING 04: minimum elevation drop used for Conduit Caracas18
  WARNING 04: minimum elevation drop used for Conduit Cararas30
  WARNING 04: minimum elevation drop used for Conduit Carac36.1
  WARNING 04: minimum elevation drop used for Conduit Carac36.2
  WARNING 04: minimum elevation drop used for Conduit Carac36.3
  WARNING 04: minimum elevation drop used for Conduit Carac36.4
  WARNING 04: minimum elevation drop used for Conduit Carac42.1
  WARNING 04: minimum elevation drop used for Conduit Carac42.2
  WARNING 04: minimum elevation drop used for Conduit Carac42.3
  WARNING 04: minimum elevation drop used for Conduit Lou48.1
  WARNING 04: minimum elevation drop used for Conduit Lou48.2
  WARNING 04: minimum elevation drop used for Conduit Elli18.4
  WARNING 04: minimum elevation drop used for Conduit Osborne54
  WARNING 04: minimum elevation drop used for Conduit Curtis54
  WARNING 04: minimum elevation drop used for Conduit Pali54.1
  WARNING 04: minimum elevation drop used for Conduit Pali54.2
  WARNING 04: minimum elevation drop used for Conduit 289
  WARNING 04: minimum elevation drop used for Conduit Pali18
  WARNING 04: minimum elevation drop used for Conduit Pali27
  WARNING 04: minimum elevation drop used for Conduit Curtis54.3
  WARNING 04: minimum elevation drop used for Conduit Curtis54.2
  WARNING 04: minimum elevation drop used for Conduit Curtis54.1
  WARNING 04: minimum elevation drop used for Conduit Pali36.1
  WARNING 04: minimum elevation drop used for Conduit Pali36.2
  WARNING 04: minimum elevation drop used for Conduit Pali36.3
  WARNING 04: minimum elevation drop used for Conduit Pali36.4
  WARNING 04: minimum elevation drop used for Conduit Pali42.1
  WARNING 04: minimum elevation drop used for Conduit Pali42.2
  WARNING 04: minimum elevation drop used for Conduit Pali42.3
  WARNING 04: minimum elevation drop used for Conduit Osborn21.1
  WARNING 04: minimum elevation drop used for Conduit Osborn24.2
  WARNING 04: minimum elevation drop used for Conduit Osborn30.2
  WARNING 04: minimum elevation drop used for Conduit Osborn30.1
  WARNING 04: minimum elevation drop used for Conduit Osborn36.1
  WARNING 04: minimum elevation drop used for Conduit Osborn18.1
  WARNING 04: minimum elevation drop used for Conduit Osborn24.1
  WARNING 04: minimum elevation drop used for Conduit Osborn18.3
  WARNING 04: minimum elevation drop used for Conduit Osborn18.2
  WARNING 04: minimum elevation drop used for Conduit 29th15.2
  WARNING 04: minimum elevation drop used for Conduit 29th18.1
  WARNING 04: minimum elevation drop used for Conduit 29th18.2
  WARNING 04: minimum elevation drop used for Conduit 29th18.3
  WARNING 04: minimum elevation drop used for Conduit 29th15.1
  WARNING 04: minimum elevation drop used for Conduit 30th36.1
  WARNING 04: minimum elevation drop used for Conduit 30th42
  WARNING 04: minimum elevation drop used for Conduit 30th48
  WARNING 04: minimum elevation drop used for Conduit Chelsa54.2
  WARNING 04: minimum elevation drop used for Conduit Chelsa54.3
  WARNING 04: minimum elevation drop used for Conduit Chelsa54.4
  WARNING 04: minimum elevation drop used for Conduit Chelsa60
  WARNING 04: minimum elevation drop used for Conduit Chelsa18
  WARNING 04: minimum elevation drop used for Conduit Chelsa54.1
  WARNING 04: minimum elevation drop used for Conduit Chelsa15.1
  WARNING 03: negative offset ignored for Link Chelsa18.2
  WARNING 08: elevation drop exceeds length for Conduit Chelsa18.2
  
  *************
  Element Count
  *************
  Number of rain gages ...... 0
  Number of subcatchments ... 0
  Number of nodes ........... 80
  Number of links ........... 79
  Number of pollutants ...... 0
  Number of land uses ....... 0
  
  
  ************
  Node Summary
  ************
                                           Invert      Max.    Ponded    External
  Name                 Type                 Elev.     Depth      Area    Inflow  
  -------------------------------------------------------------------------------
  GidInl1              JUNCTION             51.85      4.25       0.0    Yes
  GidMan1              JUNCTION             49.67      4.12       0.0    Yes
  GidInl3              JUNCTION             49.17      4.62       0.0    Yes
  210                  JUNCTION             50.00     10.00       0.0    Yes
  Basin#43             JUNCTION             50.00     10.00       0.0    Yes
  Basin44              JUNCTION             50.00     10.00       0.0    Yes
  FrMan2               JUNCTION             50.00     10.00       0.0    Yes
  FrIn3                JUNCTION             50.00     10.00       0.0    Yes
  FrMan1               JUNCTION             50.00     10.00       0.0    Yes
  FrIn1                JUNCTION             50.00     10.00       0.0    Yes
  FrIn2                JUNCTION             50.00     10.00       0.0    Yes
  ShadMan2             JUNCTION             50.00     10.00       0.0    Yes
  ShadMan1             JUNCTION             50.00     10.00       0.0    Yes
  ShadInl1             JUNCTION             50.00     10.00       0.0    Yes
  ShadInl2             JUNCTION             50.00     10.00       0.0    Yes
  McBerInl1            JUNCTION             50.00     10.00       0.0    Yes
  WilderInl1           JUNCTION             50.00     10.00       0.0    Yes
  McBerInl2            JUNCTION             50.00     10.00       0.0    Yes
  WilderInl2           JUNCTION             50.00     10.00       0.0    Yes
  CaracMan1            JUNCTION             50.00     10.00       0.0    Yes
  Basin45              JUNCTION             50.00     10.00       0.0    Yes
  EllInl1              JUNCTION             50.00     10.00       0.0    Yes
  EllInl2              JUNCTION             50.00     10.00       0.0    Yes
  EllInl4              JUNCTION             50.00     10.00       0.0    Yes
  EllInl3              JUNCTION             50.00     10.00       0.0    Yes
  CaracInl1            JUNCTION             50.00     10.00       0.0    Yes
  CarMan1              JUNCTION             50.00     10.00       0.0    Yes
  CarInl1              JUNCTION             50.00     10.00       0.0    Yes
  CarInl2              JUNCTION             50.00     10.00       0.0    Yes
  CarMan2              JUNCTION             50.00     10.00       0.0    Yes
  CarInl3              JUNCTION             50.00     10.00       0.0    Yes
  CarInl4              JUNCTION             50.00     10.00       0.0    Yes
  CarInl5              JUNCTION             50.00     10.00       0.0    Yes
  EllMan1              JUNCTION             50.00     10.00       0.0    Yes
  LouInl1              JUNCTION             50.00     10.00       0.0    Yes
  LouInl2              JUNCTION             50.00     10.00       0.0    Yes
  EllInl5              JUNCTION             50.00     10.00       0.0    Yes
  OsbornInl1           JUNCTION             50.00     10.00       0.0    Yes
  282                  JUNCTION             50.00     10.00       0.0    Yes
  PaliInl1             JUNCTION             50.00     10.00       0.0    Yes
  Basin19              JUNCTION             50.00     10.00       0.0    Yes
  PaliInl2             JUNCTION             50.00     10.00       0.0    Yes
  PaliInl4             JUNCTION             50.00     10.00       0.0    Yes
  PaliInl3             JUNCTION             50.00     10.00       0.0    Yes
  CurtisMan1           JUNCTION             50.00     10.00       0.0    Yes
  CurtisInl1           JUNCTION             50.00     10.00       0.0    Yes
  CurtisInl2           JUNCTION             50.00     10.00       0.0    Yes
  PaliInl11            JUNCTION             50.00     10.00       0.0    Yes
  PaliInl10            JUNCTION             50.00     10.00       0.0    Yes
  PaliInl9             JUNCTION             50.00     10.00       0.0    Yes
  PaliInl8             JUNCTION             50.00     10.00       0.0    Yes
  PaliInl7             JUNCTION             50.00     10.00       0.0    Yes
  PaliInl6             JUNCTION             50.00     10.00       0.0    Yes
  PaliInl5             JUNCTION             50.00     10.00       0.0    Yes
  OsbornInl4           JUNCTION             50.00     10.00       0.0    Yes
  OsbornInl3           JUNCTION             50.00     10.00       0.0    Yes
  OsbornInl2           JUNCTION             50.00     10.00       0.0    Yes
  OsbornInl            JUNCTION             50.00     10.00       0.0    Yes
  OsbornInl0           JUNCTION             50.00     10.00       0.0    Yes
  324                  JUNCTION             50.00     10.00       0.0    Yes
  325                  JUNCTION             50.00     10.00       0.0    Yes
  OsbornInl5           JUNCTION             50.00     10.00       0.0    Yes
  OsbornInl6           JUNCTION             50.00     10.00       0.0    Yes
  29thInl2             JUNCTION             50.00     10.00       0.0    Yes
  29thInl3             JUNCTION             50.00     10.00       0.0    Yes
  29thMan1             JUNCTION             50.00     10.00       0.0    Yes
  29thInl4             JUNCTION             50.00     10.00       0.0    Yes
  29thInl1             JUNCTION             50.00     10.00       0.0    Yes
  30thMan1             JUNCTION             50.00     10.00       0.0    Yes
  30thInl2             JUNCTION             50.00     10.00       0.0    Yes
  30thInl3             JUNCTION             50.00     10.00       0.0    Yes
  ChelsaMan1           JUNCTION             50.00     10.00       0.0    Yes
  ChelsaMan2           JUNCTION             50.00     10.00       0.0    Yes
  ChelsaMan3           JUNCTION             50.00     10.00       0.0    Yes
  ChelsaMan4           JUNCTION             50.00     10.00       0.0    Yes
  ChelsaInl1           JUNCTION             50.00     10.00       0.0    Yes
  ChelsaInl3           JUNCTION             50.00     10.00       0.0    Yes
  ChelsaInl4           JUNCTION              0.00      0.10       0.0    Yes
  ChelsaMan5           JUNCTION              0.00      0.10       0.0    Yes
  Basin1               OUTFALL              50.00      2.00       0.0
  
  
  ************
  Link Summary
  ************
  Name             From Node        To Node          Type            Length    %Slope Roughness
  ---------------------------------------------------------------------------------------------
  Giddons15        GidInl1          GidMan1          CONDUIT           50.0    4.3541    0.0140
  Giddons18        GidMan1          GidInl3          CONDUIT           50.0    1.0001    0.0140
  Giddons24        GidInl3          210              CONDUIT           50.0    0.0020    0.0140
  GidBas24         210              Basin#43         CONDUIT           50.0    0.0020    0.0140
  BasFri12         Basin44          FrMan2           CONDUIT           50.0    0.0020    0.0140
  Frierson1        FrMan2           FrIn3            CONDUIT           50.0    0.0020    0.0140
  Frierson2        FrIn3            FrMan1           CONDUIT           50.0    0.0020    0.0140
  222              FrMan1           Basin#43         CONDUIT           50.0    0.0020    0.0140
  Fr30#2           FrIn1            FrIn2            CONDUIT           50.0    0.0020    0.0140
  Fr30#1           FrIn2            Basin44          CONDUIT           50.0    0.0020    0.0140
  Shadow24         Basin#43         ShadMan2         CONDUIT           50.0    0.0020    0.0140
  Shadow30         ShadMan2         ShadMan1         CONDUIT           50.0    0.0020    0.0140
  Shad18.2         ShadInl1         ShadInl2         CONDUIT           50.0    0.0020    0.0140
  Shad18.1         ShadInl2         ShadMan1         CONDUIT           50.0    0.0020    0.0140
  McBerry30        ShadMan2         McBerInl1        CONDUIT           50.0    0.0020    0.0140
  Wilder30         McBerInl1        WilderInl1       CONDUIT           50.0    0.0020    0.0140
  McBerry18        McBerInl2        McBerInl1        CONDUIT           50.0    0.0020    0.0140
  Wilder18         WilderInl2       WilderInl1       CONDUIT           50.0    0.0020    0.0140
  Caracas36        WilderInl1       CaracMan1        CONDUIT           50.0    0.0020    0.0140
  Cararas48        CaracMan1        Basin45          CONDUIT           50.0    0.0020    0.0140
  Elli18.3         EllInl1          EllInl2          CONDUIT           50.0    0.0020    0.0140
  Elli18.1         EllInl4          EllInl3          CONDUIT           50.0    0.0020    0.0140
  Elli18.2         EllInl3          EllInl2          CONDUIT           50.0    0.0020    0.0140
  Elli24           EllInl2          Basin45          CONDUIT           50.0    0.0020    0.0140
  Caracas18        CaracInl1        Basin45          CONDUIT           50.0    0.0020    0.0140
  Cararas30        Basin45          CarMan1          CONDUIT           50.0    0.0020    0.0140
  Carac36.1        CarMan1          CarInl1          CONDUIT           50.0    0.0020    0.0140
  Carac36.2        CarInl1          CarInl2          CONDUIT           50.0    0.0020    0.0140
  Carac36.3        CarInl2          CarMan2          CONDUIT           50.0    0.0020    0.0140
  Carac36.4        CarMan2          CarInl3          CONDUIT           50.0    0.0020    0.0140
  Carac42.1        CarInl3          CarInl4          CONDUIT           50.0    0.0020    0.0140
  Carac42.2        CarInl4          CarInl5          CONDUIT           50.0    0.0020    0.0140
  Carac42.3        CarInl5          EllMan1          CONDUIT           50.0    0.0020    0.0140
  Lou48.1          EllMan1          LouInl1          CONDUIT           50.0    0.0020    0.0140
  Lou48.2          LouInl1          LouInl2          CONDUIT           50.0    0.0020    0.0140
  Elli18.4         EllInl5          EllMan1          CONDUIT           50.0    0.0020    0.0140
  Osborne54        LouInl2          OsbornInl1       CONDUIT           50.0    0.0020    0.0140
  Curtis54         OsbornInl1       282              CONDUIT           50.0    0.0020    0.0140
  Pali54.1         282              PaliInl1         CONDUIT           50.0    0.0020    0.0140
  Pali54.2         PaliInl1         Basin19          CONDUIT           50.0    0.0020    0.0140
  289              PaliInl2         PaliInl1         CONDUIT           50.0    0.0020    0.0140
  Pali18           PaliInl4         PaliInl3         CONDUIT           50.0    0.0020    0.0140
  Pali27           PaliInl3         PaliInl2         CONDUIT           50.0    0.0020    0.0140
  Curtis54.3       CurtisMan1       PaliInl2         CONDUIT           50.0    0.0020    0.0140
  Curtis54.2       CurtisInl1       CurtisMan1       CONDUIT           50.0    0.0020    0.0140
  Curtis54.1       CurtisInl2       CurtisInl1       CONDUIT           50.0    0.0020    0.0140
  Pali36.1         PaliInl11        PaliInl10        CONDUIT           50.0    0.0020    0.0140
  Pali36.2         PaliInl10        PaliInl9         CONDUIT           50.0    0.0020    0.0140
  Pali36.3         PaliInl9         PaliInl8         CONDUIT           50.0    0.0020    0.0140
  Pali36.4         PaliInl8         PaliInl7         CONDUIT           50.0    0.0020    0.0140
  Pali42.1         PaliInl7         PaliInl6         CONDUIT           50.0    0.0020    0.0140
  Pali42.2         PaliInl6         PaliInl5         CONDUIT           50.0    0.0020    0.0140
  Pali42.3         PaliInl5         CurtisInl2       CONDUIT           50.0    0.0020    0.0140
  Osborn21.1       OsbornInl4       OsbornInl3       CONDUIT           50.0    0.0020    0.0140
  Osborn24.2       OsbornInl3       OsbornInl2       CONDUIT           50.0    0.0020    0.0140
  Osborn30.2       OsbornInl2       OsbornInl        CONDUIT           50.0    0.0020    0.0140
  Osborn30.1       OsbornInl        OsbornInl0       CONDUIT           50.0    0.0020    0.0140
  Osborn36.1       OsbornInl0       CurtisInl2       CONDUIT           50.0    0.0020    0.0140
  Osborn18.1       324              325              CONDUIT           50.0    0.0020    0.0140
  Osborn24.1       325              OsbornInl0       CONDUIT           50.0    0.0020    0.0140
  Osborn18.3       OsbornInl5       OsbornInl6       CONDUIT           50.0    0.0020    0.0140
  Osborn18.2       OsbornInl6       OsbornInl0       CONDUIT           50.0    0.0020    0.0140
  29th15.2         29thInl2         29thInl3         CONDUIT           50.0    0.0020    0.0140
  29th18.1         29thInl3         29thMan1         CONDUIT           50.0    0.0020    0.0140
  29th18.2         29thMan1         29thInl4         CONDUIT           50.0    0.0020    0.0140
  29th18.3         29thInl4         Basin19          CONDUIT           50.0    0.0020    0.0140
  29th15.1         29thInl1         29thInl2         CONDUIT           50.0    0.0020    0.0140
  30th36.1         PaliInl1         30thMan1         CONDUIT           50.0    0.0020    0.0140
  30th42           30thMan1         30thInl2         CONDUIT           50.0    0.0020    0.0140
  30th48           30thInl2         30thInl3         CONDUIT           50.0    0.0020    0.0140
  Chelsa54.2       ChelsaMan1       ChelsaMan2       CONDUIT           50.0    0.0020    0.0140
  Chelsa54.3       ChelsaMan2       ChelsaMan3       CONDUIT           50.0    0.0020    0.0140
  Chelsa54.4       ChelsaMan4       ChelsaMan3       CONDUIT           50.0    0.0020    0.0140
  Chelsa60         ChelsaMan3       Basin1           CONDUIT           50.0    0.0020    0.0140
  Chelsa18         ChelsaInl1       ChelsaMan1       CONDUIT           50.0    0.0020    0.0140
  Chelsa54.1       30thInl3         ChelsaMan1       CONDUIT           50.0    0.0020    0.0140
  Chelsa15.1       ChelsaInl3       ChelsaMan2       CONDUIT           50.0    0.0020    0.0140
  Chelsa18.1       ChelsaInl4       ChelsaMan5       CONDUIT           10.0    0.5000    0.0140
  Chelsa18.2       ChelsaMan5       ChelsaMan4       CONDUIT           10.0 -499.5000    0.0140
  
  
  *********************
  Cross Section Summary
  *********************
                                        Full     Full     Hyd.     Max.   No. of     Full
  Conduit          Shape               Depth     Area     Rad.    Width  Barrels     Flow
  ---------------------------------------------------------------------------------------
  Giddons15        CIRCULAR             2.00     3.14     0.50     2.00        1    43.83
  Giddons18        CIRCULAR             2.00     3.14     0.50     2.00        1    21.01
  Giddons24        CIRCULAR             2.00     3.14     0.50     2.00        1     0.94
  GidBas24         CIRCULAR             2.00     3.14     0.50     2.00        1     0.94
  BasFri12         CIRCULAR             2.00     3.14     0.50     2.00        1     0.94
  Frierson1        CIRCULAR             2.00     3.14     0.50     2.00        1     0.94
  Frierson2        CIRCULAR             2.00     3.14     0.50     2.00        1     0.94
  222              CIRCULAR             2.00     3.14     0.50     2.00        1     0.94
  Fr30#2           CIRCULAR             2.00     3.14     0.50     2.00        1     0.94
  Fr30#1           CIRCULAR             2.00     3.14     0.50     2.00        1     0.94
  Shadow24         CIRCULAR             2.00     3.14     0.50     2.00        1     0.94
  Shadow30         CIRCULAR             2.00     3.14     0.50     2.00        1     0.94
  Shad18.2         CIRCULAR             2.00     3.14     0.50     2.00        1     0.94
  Shad18.1         CIRCULAR             2.00     3.14     0.50     2.00        1     0.94
  McBerry30        CIRCULAR             2.00     3.14     0.50     2.00        1     0.94
  Wilder30         CIRCULAR             2.00     3.14     0.50     2.00        1     0.94
  McBerry18        CIRCULAR             2.00     3.14     0.50     2.00        1     0.94
  Wilder18         CIRCULAR             2.00     3.14     0.50     2.00        1     0.94
  Caracas36        CIRCULAR             2.00     3.14     0.50     2.00        1     0.94
  Cararas48        CIRCULAR             2.00     3.14     0.50     2.00        1     0.94
  Elli18.3         CIRCULAR             2.00     3.14     0.50     2.00        1     0.94
  Elli18.1         CIRCULAR             2.00     3.14     0.50     2.00        1     0.94
  Elli18.2         CIRCULAR             2.00     3.14     0.50     2.00        1     0.94
  Elli24           CIRCULAR             2.00     3.14     0.50     2.00        1     0.94
  Caracas18        CIRCULAR             2.00     3.14     0.50     2.00        1     0.94
  Cararas30        CIRCULAR             2.00     3.14     0.50     2.00        1     0.94
  Carac36.1        CIRCULAR             2.00     3.14     0.50     2.00        1     0.94
  Carac36.2        CIRCULAR             2.00     3.14     0.50     2.00        1     0.94
  Carac36.3        CIRCULAR             2.00     3.14     0.50     2.00        1     0.94
  Carac36.4        CIRCULAR             2.00     3.14     0.50     2.00        1     0.94
  Carac42.1        CIRCULAR             2.00     3.14     0.50     2.00        1     0.94
  Carac42.2        CIRCULAR             2.00     3.14     0.50     2.00        1     0.94
  Carac42.3        CIRCULAR             2.00     3.14     0.50     2.00        1     0.94
  Lou48.1          CIRCULAR             2.00     3.14     0.50     2.00        1     0.94
  Lou48.2          CIRCULAR             2.00     3.14     0.50     2.00        1     0.94
  Elli18.4         CIRCULAR             2.00     3.14     0.50     2.00        1     0.94
  Osborne54        CIRCULAR             2.00     3.14     0.50     2.00        1     0.94
  Curtis54         CIRCULAR             2.00     3.14     0.50     2.00        1     0.94
  Pali54.1         CIRCULAR             2.00     3.14     0.50     2.00        1     0.94
  Pali54.2         CIRCULAR             2.00     3.14     0.50     2.00        1     0.94
  289              CIRCULAR             2.00     3.14     0.50     2.00        1     0.94
  Pali18           CIRCULAR             2.00     3.14     0.50     2.00        1     0.94
  Pali27           CIRCULAR             2.00     3.14     0.50     2.00        1     0.94
  Curtis54.3       CIRCULAR             2.00     3.14     0.50     2.00        1     0.94
  Curtis54.2       CIRCULAR             2.00     3.14     0.50     2.00        1     0.94
  Curtis54.1       CIRCULAR             2.00     3.14     0.50     2.00        1     0.94
  Pali36.1         CIRCULAR             2.00     3.14     0.50     2.00        1     0.94
  Pali36.2         CIRCULAR             2.00     3.14     0.50     2.00        1     0.94
  Pali36.3         CIRCULAR             2.00     3.14     0.50     2.00        1     0.94
  Pali36.4         CIRCULAR             2.00     3.14     0.50     2.00        1     0.94
  Pali42.1         CIRCULAR             2.00     3.14     0.50     2.00        1     0.94
  Pali42.2         CIRCULAR             2.00     3.14     0.50     2.00        1     0.94
  Pali42.3         CIRCULAR             2.00     3.14     0.50     2.00        1     0.94
  Osborn21.1       CIRCULAR             2.00     3.14     0.50     2.00        1     0.94
  Osborn24.2       CIRCULAR             2.00     3.14     0.50     2.00        1     0.94
  Osborn30.2       CIRCULAR             2.00     3.14     0.50     2.00        1     0.94
  Osborn30.1       CIRCULAR             2.00     3.14     0.50     2.00        1     0.94
  Osborn36.1       CIRCULAR             2.00     3.14     0.50     2.00        1     0.94
  Osborn18.1       CIRCULAR             2.00     3.14     0.50     2.00        1     0.94
  Osborn24.1       CIRCULAR             2.00     3.14     0.50     2.00        1     0.94
  Osborn18.3       CIRCULAR             2.00     3.14     0.50     2.00        1     0.94
  Osborn18.2       CIRCULAR             2.00     3.14     0.50     2.00        1     0.94
  29th15.2         CIRCULAR             2.00     3.14     0.50     2.00        1     0.94
  29th18.1         CIRCULAR             2.00     3.14     0.50     2.00        1     0.94
  29th18.2         CIRCULAR             2.00     3.14     0.50     2.00        1     0.94
  29th18.3         CIRCULAR             2.00     3.14     0.50     2.00        1     0.94
  29th15.1         CIRCULAR             2.00     3.14     0.50     2.00        1     0.94
  30th36.1         CIRCULAR             2.00     3.14     0.50     2.00        1     0.94
  30th42           CIRCULAR             2.00     3.14     0.50     2.00        1     0.94
  30th48           CIRCULAR             2.00     3.14     0.50     2.00        1     0.94
  Chelsa54.2       CIRCULAR             2.00     3.14     0.50     2.00        1     0.94
  Chelsa54.3       CIRCULAR             2.00     3.14     0.50     2.00        1     0.94
  Chelsa54.4       CIRCULAR             2.00     3.14     0.50     2.00        1     0.94
  Chelsa60         CIRCULAR             2.00     3.14     0.50     2.00        1     0.94
  Chelsa18         CIRCULAR             2.00     3.14     0.50     2.00        1     0.94
  Chelsa54.1       CIRCULAR             2.00     3.14     0.50     2.00        1     0.94
  Chelsa15.1       CIRCULAR             2.00     3.14     0.50     2.00        1     0.94
  Chelsa18.1       CIRCULAR             0.05     0.00     0.01     0.05        1     0.00
  Chelsa18.2       CIRCULAR             0.05     0.00     0.01     0.05        1     0.03
  
  
  ****************
  Analysis Options
  ****************
  Flow Units ............... CFS
  Process Models:
    Rainfall/Runoff ........ NO
    RDII ................... NO
    Snowmelt ............... NO
    Groundwater ............ NO
    Flow Routing ........... YES
    Ponding Allowed ........ NO
    Water Quality .......... NO
  Flow Routing Method ...... DYNWAVE
  Surcharge Method ......... EXTRAN
  Starting Date ............ 01/01/2014 00:00:00
  Ending Date .............. 01/02/2014 01:00:00
  Antecedent Dry Days ...... 0.0
  Report Time Step ......... 00:00:05
  Routing Time Step ........ 5.00 sec
  Variable Time Step ....... YES
  Maximum Trials ........... 8
  Number of Threads ........ 1
  Head Tolerance ........... 0.005000 ft
  
  
  **************************        Volume        Volume
  Flow Routing Continuity        acre-feet      10^6 gal
  **************************     ---------     ---------
  Dry Weather Inflow .......         0.000         0.000
  Wet Weather Inflow .......         0.000         0.000
  Groundwater Inflow .......         0.000         0.000
  RDII Inflow ..............         0.000         0.000
  External Inflow ..........        16.321         5.319
  External Outflow .........        15.601         5.084
  Flooding Loss ............         0.466         0.152
  Evaporation Loss .........         0.000         0.000
  Exfiltration Loss ........         0.000         0.000
  Initial Stored Volume ....         0.000         0.000
  Final Stored Volume ......         0.255         0.083
  Continuity Error (%) .....        -0.001
  
  
  ***************************
  Time-Step Critical Elements
  ***************************
  Link Cararas30 (97.04%)
  Link 30th36.1 (1.31%)
  
  
  ********************************
  Highest Flow Instability Indexes
  ********************************
  All links are stable.
  
  
  *********************************
  Most Frequent Nonconverging Nodes
  *********************************
  Convergence obtained at all time steps.
  
  
  *************************
  Routing Time Step Summary
  *************************
  Minimum Time Step           :     0.23 sec
  Average Time Step           :     3.47 sec
  Maximum Time Step           :     5.00 sec
  % of Time in Steady State   :     0.00
  Average Iterations per Step :     2.00
  % of Steps Not Converging   :     0.00
  Time Step Frequencies       :
      5.000 -  3.155 sec      :    99.96 %
      3.155 -  1.991 sec      :     0.00 %
      1.991 -  1.256 sec      :     0.00 %
      1.256 -  0.792 sec      :     0.00 %
      0.792 -  0.500 sec      :     0.03 %
  
  
  ******************
  Node Depth Summary
  ******************
  
  ---------------------------------------------------------------------------------
                                 Average  Maximum  Maximum  Time of Max    Reported
                                   Depth    Depth      HGL   Occurrence   Max Depth
  Node                 Type         Feet     Feet     Feet  days hr:min        Feet
  ---------------------------------------------------------------------------------
  GidInl1              JUNCTION     0.07     0.07    51.92     0  00:00        0.07
  GidMan1              JUNCTION     2.20     2.21    51.89     0  16:00        2.21
  GidInl3              JUNCTION     2.70     2.71    51.89     0  19:56        2.71
  210                  JUNCTION     1.87     1.89    51.89     0  11:28        1.89
  Basin#43             JUNCTION     1.87     1.89    51.89     0  12:23        1.89
  Basin44              JUNCTION     1.87     1.89    51.89     0  07:23        1.89
  FrMan2               JUNCTION     1.87     1.89    51.89     0  11:35        1.89
  FrIn3                JUNCTION     1.87     1.89    51.89     0  15:47        1.89
  FrMan1               JUNCTION     1.87     1.89    51.89     0  13:43        1.89
  FrIn1                JUNCTION     1.87     1.89    51.89     0  12:13        1.89
  FrIn2                JUNCTION     1.87     1.89    51.89     0  14:34        1.89
  ShadMan2             JUNCTION     1.87     1.89    51.89     0  20:25        1.89
  ShadMan1             JUNCTION     1.87     1.89    51.89     0  08:05        1.89
  ShadInl1             JUNCTION     1.87     1.89    51.89     0  06:19        1.89
  ShadInl2             JUNCTION     1.87     1.89    51.89     0  20:22        1.89
  McBerInl1            JUNCTION     1.87     1.89    51.89     0  07:16        1.89
  WilderInl1           JUNCTION     1.87     1.88    51.88     0  08:29        1.88
  McBerInl2            JUNCTION     1.87     1.89    51.89     0  13:51        1.89
  WilderInl2           JUNCTION     1.87     1.88    51.88     0  18:13        1.88
  CaracMan1            JUNCTION     1.86     1.88    51.88     0  11:02        1.88
  Basin45              JUNCTION     1.86     1.88    51.88     0  10:10        1.88
  EllInl1              JUNCTION     1.86     1.88    51.88     1  00:28        1.88
  EllInl2              JUNCTION     1.86     1.88    51.88     0  20:23        1.88
  EllInl4              JUNCTION     1.86     1.88    51.88     0  10:19        1.88
  EllInl3              JUNCTION     1.86     1.88    51.88     0  10:19        1.88
  CaracInl1            JUNCTION     1.86     1.88    51.88     0  19:07        1.88
  CarMan1              JUNCTION     1.85     1.87    51.87     0  17:12        1.87
  CarInl1              JUNCTION     1.85     1.86    51.86     0  12:19        1.86
  CarInl2              JUNCTION     1.84     1.85    51.85     0  09:58        1.85
  CarMan2              JUNCTION     1.83     1.85    51.85     0  07:41        1.85
  CarInl3              JUNCTION     1.82     1.84    51.84     0  13:35        1.84
  CarInl4              JUNCTION     1.81     1.83    51.83     0  20:26        1.83
  CarInl5              JUNCTION     1.80     1.82    51.82     0  13:22        1.82
  EllMan1              JUNCTION     1.79     1.81    51.81     0  09:44        1.81
  LouInl1              JUNCTION     1.78     1.79    51.79     0  11:46        1.79
  LouInl2              JUNCTION     1.76     1.78    51.78     0  19:13        1.78
  EllInl5              JUNCTION     1.79     1.81    51.81     0  07:42        1.81
  OsbornInl1           JUNCTION     1.75     1.77    51.77     0  06:51        1.77
  282                  JUNCTION     1.74     1.75    51.75     1  00:54        1.75
  PaliInl1             JUNCTION     1.72     1.73    51.73     0  07:14        1.73
  Basin19              JUNCTION     1.72     1.73    51.73     0  19:18        1.73
  PaliInl2             JUNCTION     1.73     1.74    51.74     0  19:06        1.74
  PaliInl4             JUNCTION     1.73     1.74    51.74     0  12:55        1.74
  PaliInl3             JUNCTION     1.73     1.74    51.74     0  20:31        1.74
  CurtisMan1           JUNCTION     1.73     1.74    51.74     0  12:24        1.74
  CurtisInl1           JUNCTION     1.73     1.75    51.75     0  08:21        1.75
  CurtisInl2           JUNCTION     1.74     1.75    51.75     0  18:34        1.75
  PaliInl11            JUNCTION     1.74     1.75    51.75     0  09:11        1.75
  PaliInl10            JUNCTION     1.74     1.75    51.75     0  20:32        1.75
  PaliInl9             JUNCTION     1.74     1.75    51.75     0  23:25        1.75
  PaliInl8             JUNCTION     1.74     1.75    51.75     0  20:25        1.75
  PaliInl7             JUNCTION     1.74     1.75    51.75     0  10:10        1.75
  PaliInl6             JUNCTION     1.74     1.75    51.75     0  17:55        1.75
  PaliInl5             JUNCTION     1.74     1.75    51.75     0  22:36        1.75
  OsbornInl4           JUNCTION     1.74     1.75    51.75     0  21:40        1.75
  OsbornInl3           JUNCTION     1.74     1.75    51.75     1  00:04        1.75
  OsbornInl2           JUNCTION     1.74     1.75    51.75     0  15:21        1.75
  OsbornInl            JUNCTION     1.74     1.75    51.75     0  20:46        1.75
  OsbornInl0           JUNCTION     1.74     1.75    51.75     0  17:52        1.75
  324                  JUNCTION     1.74     1.75    51.75     0  17:53        1.75
  325                  JUNCTION     1.74     1.75    51.75     0  13:52        1.75
  OsbornInl5           JUNCTION     1.74     1.75    51.75     0  17:53        1.75
  OsbornInl6           JUNCTION     1.74     1.75    51.75     0  13:52        1.75
  29thInl2             JUNCTION     1.72     1.74    51.74     0  18:09        1.74
  29thInl3             JUNCTION     1.72     1.74    51.74     0  11:16        1.74
  29thMan1             JUNCTION     1.72     1.74    51.74     0  11:04        1.74
  29thInl4             JUNCTION     1.72     1.74    51.74     0  12:45        1.74
  29thInl1             JUNCTION     1.72     1.74    51.74     0  21:42        1.74
  30thMan1             JUNCTION     1.67     1.68    51.68     0  21:18        1.68
  30thInl2             JUNCTION     1.61     1.62    51.62     0  20:22        1.62
  30thInl3             JUNCTION     1.54     1.55    51.55     0  16:17        1.55
  ChelsaMan1           JUNCTION     1.46     1.47    51.47     0  18:51        1.47
  ChelsaMan2           JUNCTION     1.36     1.37    51.37     1  00:26        1.37
  ChelsaMan3           JUNCTION     1.20     1.21    51.21     0  19:34        1.21
  ChelsaMan4           JUNCTION     1.20     1.21    51.21     0  08:01        1.21
  ChelsaInl1           JUNCTION     1.46     1.47    51.47     0  18:51        1.47
  ChelsaInl3           JUNCTION     1.36     1.37    51.37     1  00:27        1.37
  ChelsaInl4           JUNCTION     0.10     0.10     0.10     0  00:00        0.10
  ChelsaMan5           JUNCTION     0.10     0.10     0.10     0  00:00        0.10
  Basin1               OUTFALL      0.98     0.98    50.98     0  09:00        0.98
  
  
  *******************
  Node Inflow Summary
  *******************
  
  -------------------------------------------------------------------------------------------------
                                  Maximum  Maximum                  Lateral       Total        Flow
                                  Lateral    Total  Time of Max      Inflow      Inflow     Balance
                                   Inflow   Inflow   Occurrence      Volume      Volume       Error
  Node                 Type           CFS      CFS  days hr:min    10^6 gal    10^6 gal     Percent
  -------------------------------------------------------------------------------------------------
  GidInl1              JUNCTION      0.10     0.10     0  00:00      0.0673      0.0673       0.011
  GidMan1              JUNCTION      0.10     0.52     0  00:02      0.0673       0.135       0.922
  GidInl3              JUNCTION      0.10     0.46     0  00:03      0.0673       0.201       0.633
  210                  JUNCTION      0.10     0.52     0  00:14      0.0673       0.268       0.447
  Basin#43             JUNCTION      0.10     1.10     0  18:15      0.0673       0.732       0.236
  Basin44              JUNCTION      0.10     0.39     0  00:15      0.0673         0.2       0.577
  FrMan2               JUNCTION      0.10     0.48     0  00:15      0.0673       0.267       0.433
  FrIn3                JUNCTION      0.10     0.50     0  00:15      0.0673       0.333       0.347
  FrMan1               JUNCTION      0.10     0.60     0  13:43      0.0673       0.399       0.289
  FrIn1                JUNCTION      0.10     0.15     0  00:06      0.0673      0.0673       0.858
  FrIn2                JUNCTION      0.10     0.29     0  00:06      0.0673       0.134       0.865
  ShadMan2             JUNCTION      0.10     1.50     0  20:13      0.0673       0.996       0.173
  ShadMan1             JUNCTION      0.10     0.37     0  00:10      0.0673         0.2       0.000
  ShadInl1             JUNCTION      0.10     0.13     0  00:11      0.0673      0.0673       0.858
  ShadInl2             JUNCTION      0.10     0.23     0  00:10      0.0673       0.134       0.865
  McBerInl1            JUNCTION      0.10     1.70     0  06:21      0.0673        1.13       0.153
  WilderInl1           JUNCTION      0.10     1.90     0  08:58      0.0673        1.26       0.137
  McBerInl2            JUNCTION      0.10     0.10     0  00:05      0.0673      0.0673       0.856
  WilderInl2           JUNCTION      0.10     0.13     0  00:09      0.0673      0.0673       0.855
  CaracMan1            JUNCTION      0.10     2.00     0  11:02      0.0673        1.33       0.086
  Basin45              JUNCTION      0.10     2.60     0  10:10      0.0673        1.72       0.133
  EllInl1              JUNCTION      0.10     0.10     0  00:00      0.0673      0.0673       0.853
  EllInl2              JUNCTION      0.10     0.40     0  14:02      0.0673       0.267       0.648
  EllInl4              JUNCTION      0.10     0.11     0  00:07      0.0673      0.0673       0.854
  EllInl3              JUNCTION      0.10     0.20     0  00:11      0.0673       0.134       0.861
  CaracInl1            JUNCTION      0.10     0.13     0  00:08      0.0673      0.0673       0.853
  CarMan1              JUNCTION      0.10     2.70     0  19:07      0.0673        1.79       0.064
  CarInl1              JUNCTION      0.10     2.80     0  09:27      0.0673        1.86       0.061
  CarInl2              JUNCTION      0.10     2.90     0  22:54      0.0673        1.92       0.059
  CarMan2              JUNCTION      0.10     3.00     0  19:07      0.0673        1.99       0.057
  CarInl3              JUNCTION      0.10     3.10     0  23:22      0.0673        2.05       0.055
  CarInl4              JUNCTION      0.10     3.20     0  22:55      0.0673        2.12       0.053
  CarInl5              JUNCTION      0.10     3.30     0  15:58      0.0673        2.19       0.051
  EllMan1              JUNCTION      0.10     3.50     0  17:32      0.0673        2.32       0.072
  LouInl1              JUNCTION      0.10     3.60     0  07:13      0.0673        2.38       0.047
  LouInl2              JUNCTION      0.10     3.70     0  17:40      0.0673        2.45       0.045
  EllInl5              JUNCTION      0.10     0.10     0  00:00      0.0673      0.0673       0.832
  OsbornInl1           JUNCTION      0.10     3.80     0  15:30      0.0673        2.52       0.044
  282                  JUNCTION      0.10     3.90     1  00:54      0.0673        2.58       0.042
  PaliInl1             JUNCTION      0.10     6.80     0  07:13      0.0673         4.5       0.048
  Basin19              JUNCTION      0.10     0.60     0  22:58      0.0673       0.399       0.000
  PaliInl2             JUNCTION      0.10     2.20     0  19:06      0.0673        1.46       0.112
  PaliInl4             JUNCTION      0.10     0.13     0  00:03      0.0673      0.0673       0.809
  PaliInl3             JUNCTION      0.10     0.20     0  00:04      0.0673       0.134       0.816
  CurtisMan1           JUNCTION      0.10     1.90     0  12:24      0.0673        1.26       0.086
  CurtisInl1           JUNCTION      0.10     1.80     0  09:56      0.0673        1.19       0.091
  CurtisInl2           JUNCTION      0.10     1.70     0  18:05      0.0673        1.13       0.145
  PaliInl11            JUNCTION      0.10     0.10     0  00:00      0.0673      0.0673       0.814
  PaliInl10            JUNCTION      0.10     0.20     0  03:33      0.0673       0.134       0.821
  PaliInl9             JUNCTION      0.10     0.30     0  03:33      0.0673         0.2       0.548
  PaliInl8             JUNCTION      0.10     0.40     0  03:38      0.0673       0.267       0.411
  PaliInl7             JUNCTION      0.10     0.50     0  03:41      0.0673       0.333       0.329
  PaliInl6             JUNCTION      0.10     0.60     0  03:46      0.0673       0.399       0.274
  PaliInl5             JUNCTION      0.10     0.70     0  03:51      0.0673       0.465       0.235
  OsbornInl4           JUNCTION      0.10     0.10     0  00:00      0.0673      0.0673       0.814
  OsbornInl3           JUNCTION      0.10     0.20     0  00:07      0.0673       0.134       0.821
  OsbornInl2           JUNCTION      0.10     0.30     0  03:52      0.0673         0.2       0.547
  OsbornInl            JUNCTION      0.10     0.40     0  03:55      0.0673       0.267       0.411
  OsbornInl0           JUNCTION      0.10     0.90     0  04:07      0.0673       0.599       0.366
  324                  JUNCTION      0.10     0.10     0  00:00      0.0673      0.0673       0.813
  325                  JUNCTION      0.10     0.20     0  04:18      0.0673       0.134       0.820
  OsbornInl5           JUNCTION      0.10     0.10     0  00:00      0.0673      0.0673       0.813
  OsbornInl6           JUNCTION      0.10     0.20     0  04:18      0.0673       0.134       0.820
  29thInl2             JUNCTION      0.10     0.20     0  18:08      0.0673       0.134       0.815
  29thInl3             JUNCTION      0.10     0.30     0  16:41      0.0673         0.2       0.544
  29thMan1             JUNCTION      0.10     0.40     0  07:21      0.0673       0.267       0.408
  29thInl4             JUNCTION      0.10     0.50     0  19:19      0.0673       0.333       0.326
  29thInl1             JUNCTION      0.10     0.10     0  00:00      0.0673      0.0673       0.808
  30thMan1             JUNCTION      0.10     6.90     0  21:18      0.0673        4.57       0.023
  30thInl2             JUNCTION      0.10     7.00     0  12:46      0.0673        4.64       0.022
  30thInl3             JUNCTION      0.10     7.10     1  00:53      0.0673         4.7       0.021
  ChelsaMan1           JUNCTION      0.10     7.30     0  18:51      0.0673        4.84       0.029
  ChelsaMan2           JUNCTION      0.10     7.50     1  00:26      0.0673        4.97       0.026
  ChelsaMan3           JUNCTION      0.10     7.67     0  17:07      0.0673        5.08       0.022
  ChelsaMan4           JUNCTION      0.10     0.10     0  00:00      0.0673      0.0673       0.554
  ChelsaInl1           JUNCTION      0.10     0.10     0  00:00      0.0673      0.0673       0.689
  ChelsaInl3           JUNCTION      0.10     0.10     0  00:00      0.0673      0.0673       0.635
  ChelsaInl4           JUNCTION      0.10     0.10     0  00:00      0.0673      0.0673       0.015
  ChelsaMan5           JUNCTION      0.10     0.26     0  00:00      0.0673      0.0844       0.011
  Basin1               OUTFALL       0.00     7.67     0  09:00           0        5.08       0.000
  
  
  **********************
  Node Surcharge Summary
  **********************
  
  Surcharging occurs when water rises above the top of the highest conduit.
  ---------------------------------------------------------------------
                                               Max. Height   Min. Depth
                                   Hours       Above Crown    Below Rim
  Node                 Type      Surcharged           Feet         Feet
  ---------------------------------------------------------------------
  GidMan1              JUNCTION       24.38          0.214        1.911
  ChelsaInl4           JUNCTION       25.00          0.000        0.000
  ChelsaMan5           JUNCTION       25.00          0.000        0.000
  
  
  *********************
  Node Flooding Summary
  *********************
  
  Flooding refers to all water that overflows a node, whether it ponds or not.
  --------------------------------------------------------------------------
                                                             Total   Maximum
                                 Maximum   Time of Max       Flood    Ponded
                        Hours       Rate    Occurrence      Volume     Depth
  Node                 Flooded       CFS   days hr:min    10^6 gal      Feet
  --------------------------------------------------------------------------
  ChelsaInl4             25.00      0.10      0  00:00       0.067     0.000
  ChelsaMan5             25.00      0.13      0  00:00       0.084     0.000
  
  
  ***********************
  Outfall Loading Summary
  ***********************
  
  -----------------------------------------------------------
                         Flow       Avg       Max       Total
                         Freq      Flow      Flow      Volume
  Outfall Node           Pcnt       CFS       CFS    10^6 gal
  -----------------------------------------------------------
  Basin1                99.96      7.58      7.67       5.083
  -----------------------------------------------------------
  System                99.96      7.58      7.67       5.083
  
  
  ********************
  Link Flow Summary
  ********************
  
  -----------------------------------------------------------------------------
                                 Maximum  Time of Max   Maximum    Max/    Max/
                                  |Flow|   Occurrence   |Veloc|    Full    Full
  Link                 Type          CFS  days hr:min    ft/sec    Flow   Depth
  -----------------------------------------------------------------------------
  Giddons15            CONDUIT      0.10     0  00:00      2.52    0.00    0.52
  Giddons18            CONDUIT      0.32     0  00:02      0.98    0.02    1.00
  Giddons24            CONDUIT      0.42     0  00:14      1.28    0.45    0.94
  GidBas24             CONDUIT      0.52     0  00:16      0.90    0.56    0.94
  BasFri12             CONDUIT      0.38     0  00:15      0.37    0.40    0.94
  Frierson1            CONDUIT      0.40     0  00:15      0.46    0.43    0.94
  Frierson2            CONDUIT      0.50     0  13:43      0.45    0.53    0.94
  222                  CONDUIT      0.60     0  16:12      0.51    0.64    0.94
  Fr30#2               CONDUIT      0.14     0  00:15      0.52    0.15    0.94
  Fr30#1               CONDUIT      0.29     0  00:15      0.37    0.31    0.94
  Shadow24             CONDUIT      1.10     0  12:49      0.53    1.17    0.94
  Shadow30             CONDUIT      0.39     0  00:10      0.45    0.42    0.94
  Shad18.2             CONDUIT      0.13     0  00:10      0.52    0.14    0.94
  Shad18.1             CONDUIT      0.27     0  00:10      0.51    0.29    0.94
  McBerry30            CONDUIT      1.50     0  20:22      0.49    1.60    0.94
  Wilder30             CONDUIT      1.70     0  22:53      0.55    1.81    0.94
  McBerry18            CONDUIT      0.10     0  00:10      0.68    0.11    0.94
  Wilder18             CONDUIT      0.11     0  00:09      0.67    0.12    0.94
  Caracas36            CONDUIT      1.90     0  11:02      0.62    2.02    0.94
  Cararas48            CONDUIT      2.00     0  14:44      0.65    2.13    0.94
  Elli18.3             CONDUIT      0.10     0  00:12      0.67    0.11    0.94
  Elli18.1             CONDUIT      0.10     0  00:11      0.54    0.11    0.94
  Elli18.2             CONDUIT      0.20     0  06:12      0.45    0.21    0.94
  Elli24               CONDUIT      0.40     0  13:34      0.39    0.43    0.94
  Caracas18            CONDUIT      0.11     0  00:07      0.73    0.12    0.94
  Cararas30            CONDUIT      2.60     0  19:07      0.85    2.77    0.94
  Carac36.1            CONDUIT      2.70     0  09:27      0.89    2.87    0.93
  Carac36.2            CONDUIT      2.80     0  22:54      0.92    2.98    0.93
  Carac36.3            CONDUIT      2.90     0  19:07      0.96    3.09    0.92
  Carac36.4            CONDUIT      3.00     0  23:22      0.99    3.19    0.92
  Carac42.1            CONDUIT      3.10     0  22:55      1.03    3.30    0.92
  Carac42.2            CONDUIT      3.20     0  15:58      1.07    3.41    0.91
  Carac42.3            CONDUIT      3.30     0  07:42      1.10    3.51    0.91
  Lou48.1              CONDUIT      3.50     0  07:13      1.18    3.73    0.90
  Lou48.2              CONDUIT      3.60     0  17:40      1.22    3.83    0.89
  Elli18.4             CONDUIT      0.10     0  06:17      0.65    0.11    0.90
  Osborne54            CONDUIT      3.70     0  15:30      1.26    3.94    0.89
  Curtis54             CONDUIT      3.80     1  00:54      1.30    4.04    0.88
  Pali54.1             CONDUIT      3.90     0  20:05      1.34    4.15    0.87
  Pali54.2             CONDUIT      0.60     0  22:52      0.40    0.64    0.87
  289                  CONDUIT      2.20     0  23:09      0.76    2.34    0.87
  Pali18               CONDUIT      0.10     0  00:04      0.54    0.11    0.87
  Pali27               CONDUIT      0.20     0  19:06      0.59    0.21    0.87
  Curtis54.3           CONDUIT      1.90     0  09:55      0.65    2.02    0.87
  Curtis54.2           CONDUIT      1.80     0  12:24      0.62    1.92    0.87
  Curtis54.1           CONDUIT      1.70     0  09:56      0.58    1.81    0.87
  Pali36.1             CONDUIT      0.10     0  03:33      0.52    0.11    0.88
  Pali36.2             CONDUIT      0.20     0  03:33      0.38    0.21    0.88
  Pali36.3             CONDUIT      0.30     0  03:38      0.32    0.32    0.88
  Pali36.4             CONDUIT      0.40     0  03:41      0.39    0.43    0.88
  Pali42.1             CONDUIT      0.50     0  03:46      0.37    0.53    0.88
  Pali42.2             CONDUIT      0.60     0  03:51      0.25    0.64    0.88
  Pali42.3             CONDUIT      0.70     0  03:59      0.33    0.75    0.87
  Osborn21.1           CONDUIT      0.10     0  00:07      0.52    0.11    0.88
  Osborn24.2           CONDUIT      0.20     0  03:52      0.42    0.21    0.88
  Osborn30.2           CONDUIT      0.30     0  03:55      0.45    0.32    0.88
  Osborn30.1           CONDUIT      0.40     0  04:00      0.38    0.43    0.88
  Osborn36.1           CONDUIT      0.90     0  04:10      0.39    0.96    0.88
  Osborn18.1           CONDUIT      0.10     0  04:18      0.54    0.11    0.88
  Osborn24.1           CONDUIT      0.20     0  04:18      0.59    0.21    0.88
  Osborn18.3           CONDUIT      0.10     0  04:18      0.54    0.11    0.88
  Osborn18.2           CONDUIT      0.20     0  04:18      0.59    0.21    0.88
  29th15.2             CONDUIT      0.20     0  16:41      0.37    0.21    0.87
  29th18.1             CONDUIT      0.30     0  07:21      0.37    0.32    0.87
  29th18.2             CONDUIT      0.40     0  19:19      0.44    0.43    0.87
  29th18.3             CONDUIT      0.50     0  22:58      0.31    0.53    0.87
  29th15.1             CONDUIT      0.10     0  18:08      0.52    0.11    0.87
  30th36.1             CONDUIT      6.80     0  21:18      2.38    7.24    0.85
  30th42               CONDUIT      6.90     0  12:46      2.49    7.34    0.83
  30th48               CONDUIT      7.00     1  00:53      2.62    7.45    0.79
  Chelsa54.2           CONDUIT      7.30     0  21:28      3.06    7.77    0.71
  Chelsa54.3           CONDUIT      7.50     0  17:18      3.51    7.98    0.64
  Chelsa54.4           CONDUIT      0.07     0  19:34      0.51    0.08    0.60
  Chelsa60             CONDUIT      7.67     0  09:00      4.35    8.17    0.55
  Chelsa18             CONDUIT      0.10     0  18:51      0.66    0.11    0.74
  Chelsa54.1           CONDUIT      7.10     0  19:15      2.78    7.56    0.76
  Chelsa15.1           CONDUIT      0.10     1  00:26      0.68    0.11    0.68
  Chelsa18.1           CONDUIT      0.00     0  00:00      0.30    0.65    1.00
  Chelsa18.2           CONDUIT      0.16     0  00:00    >50.00    6.27    1.00
  
  
  ***************************
  Flow Classification Summary
  ***************************
  
  -------------------------------------------------------------------------------------
                      Adjusted    ---------- Fraction of Time in Flow Class ---------- 
                       /Actual         Up    Down  Sub   Sup   Up    Down  Norm  Inlet 
  Conduit               Length    Dry  Dry   Dry   Crit  Crit  Crit  Crit  Ltd   Ctrl  
  -------------------------------------------------------------------------------------
  Giddons15               1.00   0.00  0.00  0.00  1.00  0.00  0.00  0.00  1.00  0.00
  Giddons18               1.00   0.00  0.00  0.00  1.00  0.00  0.00  0.00  0.00  0.00
  Giddons24               1.00   0.00  0.00  0.00  1.00  0.00  0.00  0.00  0.00  0.00
  GidBas24                1.00   0.00  0.00  0.00  1.00  0.00  0.00  0.00  0.00  0.00
  BasFri12                1.00   0.00  0.00  0.00  1.00  0.00  0.00  0.00  0.00  0.00
  Frierson1               1.00   0.00  0.00  0.00  1.00  0.00  0.00  0.00  0.00  0.00
  Frierson2               1.00   0.00  0.00  0.00  1.00  0.00  0.00  0.00  0.00  0.00
  222                     1.00   0.00  0.00  0.00  1.00  0.00  0.00  0.00  0.00  0.00
  Fr30#2                  1.00   0.00  0.00  0.00  1.00  0.00  0.00  0.00  0.00  0.00
  Fr30#1                  1.00   0.00  0.00  0.00  1.00  0.00  0.00  0.00  0.00  0.00
  Shadow24                1.00   0.00  0.00  0.00  1.00  0.00  0.00  0.00  0.00  0.00
  Shadow30                1.00   0.00  0.00  0.00  1.00  0.00  0.00  0.00  0.00  0.00
  Shad18.2                1.00   0.00  0.00  0.00  1.00  0.00  0.00  0.00  0.00  0.00
  Shad18.1                1.00   0.00  0.00  0.00  1.00  0.00  0.00  0.00  0.00  0.00
  McBerry30               1.00   0.00  0.00  0.00  1.00  0.00  0.00  0.00  0.00  0.00
  Wilder30                1.00   0.00  0.00  0.00  1.00  0.00  0.00  0.00  0.00  0.00
  McBerry18               1.00   0.00  0.00  0.00  1.00  0.00  0.00  0.00  0.00  0.00
  Wilder18                1.00   0.00  0.00  0.00  1.00  0.00  0.00  0.00  0.00  0.00
  Caracas36               1.00   0.00  0.00  0.00  1.00  0.00  0.00  0.00  0.00  0.00
  Cararas48               1.00   0.00  0.00  0.00  1.00  0.00  0.00  0.00  0.00  0.00
  Elli18.3                1.00   0.00  0.00  0.00  1.00  0.00  0.00  0.00  0.00  0.00
  Elli18.1                1.00   0.00  0.00  0.00  1.00  0.00  0.00  0.00  0.00  0.00
  Elli18.2                1.00   0.00  0.00  0.00  1.00  0.00  0.00  0.00  0.00  0.00
  Elli24                  1.00   0.00  0.00  0.00  1.00  0.00  0.00  0.00  0.00  0.00
  Caracas18               1.00   0.00  0.00  0.00  1.00  0.00  0.00  0.00  0.00  0.00
  Cararas30               1.00   0.00  0.00  0.00  1.00  0.00  0.00  0.00  0.00  0.00
  Carac36.1               1.00   0.00  0.00  0.00  1.00  0.00  0.00  0.00  0.00  0.00
  Carac36.2               1.00   0.00  0.00  0.00  1.00  0.00  0.00  0.00  0.00  0.00
  Carac36.3               1.00   0.00  0.00  0.00  1.00  0.00  0.00  0.00  0.00  0.00
  Carac36.4               1.00   0.00  0.00  0.00  1.00  0.00  0.00  0.00  0.00  0.00
  Carac42.1               1.00   0.00  0.00  0.00  1.00  0.00  0.00  0.00  0.00  0.00
  Carac42.2               1.00   0.00  0.00  0.00  1.00  0.00  0.00  0.00  0.00  0.00
  Carac42.3               1.00   0.00  0.00  0.00  1.00  0.00  0.00  0.00  0.00  0.00
  Lou48.1                 1.00   0.00  0.00  0.00  1.00  0.00  0.00  0.00  0.00  0.00
  Lou48.2                 1.00   0.00  0.00  0.00  1.00  0.00  0.00  0.00  0.00  0.00
  Elli18.4                1.00   0.00  0.00  0.00  1.00  0.00  0.00  0.00  0.00  0.00
  Osborne54               1.00   0.00  0.00  0.00  1.00  0.00  0.00  0.00  0.00  0.00
  Curtis54                1.00   0.00  0.00  0.00  1.00  0.00  0.00  0.00  0.00  0.00
  Pali54.1                1.00   0.00  0.00  0.00  1.00  0.00  0.00  0.00  0.00  0.00
  Pali54.2                1.00   0.00  0.00  0.00  1.00  0.00  0.00  0.00  0.00  0.00
  289                     1.00   0.00  0.00  0.00  1.00  0.00  0.00  0.00  0.00  0.00
  Pali18                  1.00   0.00  0.00  0.00  1.00  0.00  0.00  0.00  0.00  0.00
  Pali27                  1.00   0.00  0.00  0.00  1.00  0.00  0.00  0.00  0.00  0.00
  Curtis54.3              1.00   0.00  0.00  0.00  1.00  0.00  0.00  0.00  0.00  0.00
  Curtis54.2              1.00   0.00  0.00  0.00  1.00  0.00  0.00  0.00  0.00  0.00
  Curtis54.1              1.00   0.00  0.00  0.00  1.00  0.00  0.00  0.00  0.00  0.00
  Pali36.1                1.00   0.00  0.00  0.00  1.00  0.00  0.00  0.00  0.00  0.00
  Pali36.2                1.00   0.00  0.00  0.00  1.00  0.00  0.00  0.00  0.00  0.00
  Pali36.3                1.00   0.00  0.00  0.00  1.00  0.00  0.00  0.00  0.00  0.00
  Pali36.4                1.00   0.00  0.00  0.00  1.00  0.00  0.00  0.00  0.00  0.00
  Pali42.1                1.00   0.00  0.00  0.00  1.00  0.00  0.00  0.00  0.00  0.00
  Pali42.2                1.00   0.00  0.00  0.00  1.00  0.00  0.00  0.00  0.00  0.00
  Pali42.3                1.00   0.00  0.00  0.00  1.00  0.00  0.00  0.00  0.00  0.00
  Osborn21.1              1.00   0.00  0.00  0.00  1.00  0.00  0.00  0.00  0.00  0.00
  Osborn24.2              1.00   0.00  0.00  0.00  1.00  0.00  0.00  0.00  0.00  0.00
  Osborn30.2              1.00   0.00  0.00  0.00  1.00  0.00  0.00  0.00  0.00  0.00
  Osborn30.1              1.00   0.00  0.00  0.00  1.00  0.00  0.00  0.00  0.00  0.00
  Osborn36.1              1.00   0.00  0.00  0.00  1.00  0.00  0.00  0.00  0.00  0.00
  Osborn18.1              1.00   0.00  0.00  0.00  1.00  0.00  0.00  0.00  0.00  0.00
  Osborn24.1              1.00   0.00  0.00  0.00  1.00  0.00  0.00  0.00  0.00  0.00
  Osborn18.3              1.00   0.00  0.00  0.00  1.00  0.00  0.00  0.00  0.00  0.00
  Osborn18.2              1.00   0.00  0.00  0.00  1.00  0.00  0.00  0.00  0.00  0.00
  29th15.2                1.00   0.00  0.00  0.00  1.00  0.00  0.00  0.00  0.00  0.00
  29th18.1                1.00   0.00  0.00  0.00  1.00  0.00  0.00  0.00  0.00  0.00
  29th18.2                1.00   0.00  0.00  0.00  1.00  0.00  0.00  0.00  0.00  0.00
  29th18.3                1.00   0.00  0.00  0.00  1.00  0.00  0.00  0.00  0.00  0.00
  29th15.1                1.00   0.00  0.00  0.00  1.00  0.00  0.00  0.00  0.00  0.00
  30th36.1                1.00   0.00  0.00  0.00  1.00  0.00  0.00  0.00  0.00  0.00
  30th42                  1.00   0.00  0.00  0.00  1.00  0.00  0.00  0.00  0.00  0.00
  30th48                  1.00   0.00  0.00  0.00  1.00  0.00  0.00  0.00  0.00  0.00
  Chelsa54.2              1.00   0.00  0.00  0.00  1.00  0.00  0.00  0.00  0.00  0.00
  Chelsa54.3              1.00   0.00  0.00  0.00  1.00  0.00  0.00  0.00  0.00  0.00
  Chelsa54.4              1.00   0.00  0.00  0.00  1.00  0.00  0.00  0.00  0.00  0.00
  Chelsa60                1.00   0.00  0.00  0.00  1.00  0.00  0.00  0.00  0.00  0.00
  Chelsa18                1.00   0.00  0.00  0.00  1.00  0.00  0.00  0.00  0.00  0.00
  Chelsa54.1              1.00   0.00  0.00  0.00  1.00  0.00  0.00  0.00  0.00  0.00
  Chelsa15.1              1.00   0.00  0.00  0.00  1.00  0.00  0.00  0.00  0.00  0.00
  Chelsa18.1              1.00   0.00  0.00  0.00  1.00  0.00  0.00  0.00  0.00  0.00
  Chelsa18.2              1.00   0.00  0.00  0.00  1.00  0.00  0.00  0.00  0.00  0.00
  
  
  *************************
  Conduit Surcharge Summary
  *************************
  
  ----------------------------------------------------------------------------
                                                           Hours        Hours 
                         --------- Hours Full --------   Above Full   Capacity
  Conduit                Both Ends  Upstream  Dnstream   Normal Flow   Limited
  ----------------------------------------------------------------------------
  Giddons15                   0.01      0.01     24.38      0.01         0.01
  Giddons18                  24.38     24.38     24.70      0.01         0.01
  Shadow24                    0.01      0.01      0.01     24.37         0.01
  McBerry30                   0.01      0.01      0.01     24.58         0.01
  Wilder30                    0.01      0.01      0.01     24.62         0.01
  Caracas36                   0.01      0.01      0.01     24.65         0.01
  Cararas48                   0.01      0.01      0.01     24.67         0.01
  Cararas30                   0.01      0.01      0.01     24.72         0.01
  Carac36.1                   0.01      0.01      0.01     24.73         0.01
  Carac36.2                   0.01      0.01      0.01     24.74         0.01
  Carac36.3                   0.01      0.01      0.01     24.74         0.01
  Carac36.4                   0.01      0.01      0.01     24.75         0.01
  Carac42.1                   0.01      0.01      0.01     24.75         0.01
  Carac42.2                   0.01      0.01      0.01     24.75         0.01
  Carac42.3                   0.01      0.01      0.01     24.76         0.01
  Lou48.1                     0.01      0.01      0.01     24.76         0.01
  Lou48.2                     0.01      0.01      0.01     24.76         0.01
  Osborne54                   0.01      0.01      0.01     24.78         0.01
  Curtis54                    0.01      0.01      0.01     24.78         0.01
  Pali54.1                    0.01      0.01      0.01     24.78         0.01
  289                         0.01      0.01      0.01     24.68         0.01
  Curtis54.3                  0.01      0.01      0.01     24.64         0.01
  Curtis54.2                  0.01      0.01      0.01     24.64         0.01
  Curtis54.1                  0.01      0.01      0.01     24.61         0.01
  30th36.1                    0.01      0.01      0.01     24.84         0.01
  30th42                      0.01      0.01      0.01     24.84         0.01
  30th48                      0.01      0.01      0.01     24.85         0.01
  Chelsa54.2                  0.01      0.01      0.01     24.86         0.01
  Chelsa54.3                  0.01      0.01      0.01     24.86         0.01
  Chelsa60                    0.01      0.01      0.01     24.87         0.01
  Chelsa54.1                  0.01      0.01      0.01     24.85         0.01
  Chelsa18.1                 25.00     25.00     25.00      0.01         0.01
  Chelsa18.2                 25.00     25.00     25.00     25.00        25.00
  

  Analysis begun on:  Tue Jun 23 20:59:04 2026
  Analysis ended on:  Tue Jun 23 20:59:05 2026
  Total elapsed time: 00:00:01