
  EPA STORM WATER MANAGEMENT MODEL - VERSION 5.2 (Build 5.2.4)
  ------------------------------------------------------------

  WARNING 02: maximum depth increased for Node 6157
  WARNING 02: maximum depth increased for Node 6158
  WARNING 02: maximum depth increased for Node 6247
  WARNING 02: maximum depth increased for Node 6248
  WARNING 02: maximum depth increased for Node 6249
  WARNING 02: maximum depth increased for Node 6250
  WARNING 02: maximum depth increased for Node 6251
  WARNING 02: maximum depth increased for Node J222
  WARNING 02: maximum depth increased for Node J415
  WARNING 02: maximum depth increased for Node J416
  WARNING 02: maximum depth increased for Node J417
  WARNING 02: maximum depth increased for Node J419
  WARNING 02: maximum depth increased for Node J422
  WARNING 02: maximum depth increased for Node J423
  WARNING 02: maximum depth increased for Node J424
  WARNING 02: maximum depth increased for Node J425
  WARNING 02: maximum depth increased for Node J426
  WARNING 02: maximum depth increased for Node J428
  WARNING 02: maximum depth increased for Node J429
  WARNING 02: maximum depth increased for Node J430
  
  ****************
  Analysis Options
  ****************
  Flow Units ............... CMS
  Process Models:
    Rainfall/Runoff ........ YES
    RDII ................... NO
    Snowmelt ............... NO
    Groundwater ............ NO
    Flow Routing ........... YES
    Ponding Allowed ........ NO
    Water Quality .......... YES
  Infiltration Method ...... CURVE_NUMBER
  Flow Routing Method ...... KINWAVE
  Starting Date ............ 05/31/2007 00:00:00
  Ending Date .............. 10/01/2008 00:00:00
  Antecedent Dry Days ...... 0.0
  Report Time Step ......... 01:00:00
  Wet Time Step ............ 01:00:00
  Dry Time Step ............ 12:00:00
  Routing Time Step ........ 300.00 sec
  
  
  *********************
  Rainfall File Summary
  *********************
  Station    First        Last         Recording   Periods    Periods    Periods
  ID         Date         Date         Frequency  w/Precip    Missing    Malfunc.
  -------------------------------------------------------------------------------
  
  
  ERROR 317: cannot open rainfall data file D:\NovDec2009\2007 and 2008 1 hr precip.txt.

  Analysis begun on:  Tue Jun 23 20:59:05 2026
  Analysis ended on:  Tue Jun 23 20:59:05 2026
  Total elapsed time: < 1 sec