
  EPA STORM WATER MANAGEMENT MODEL - VERSION 5.2 (Build 5.2.4)
  ------------------------------------------------------------

   Sample using Malaysian Master Rainfall and Infiltration 
  
  *************
  Element Count
  *************
  Number of rain gages ...... 1
  Number of subcatchments ... 8
  Number of nodes ........... 14
  Number of links ........... 13
  Number of pollutants ...... 1
  Number of land uses ....... 0
  
  
  *****************
  Pollutant Summary
  *****************
                               Ppt.      GW         Kdecay
  Name                 Units   Concen.   Concen.    1/days    CoPollutant
  -----------------------------------------------------------------------
  BMP                   MG/L      0.00      0.00      0.00
  
  
  ****************
  Raingage Summary
  ****************
                                                      Data       Recording
  Name                 Data Source                    Type       Interval 
  ------------------------------------------------------------------------
  EWCPM~60min          RN#3                           VOLUME       5 min.
  
  
  ********************
  Subcatchment Summary
  ********************
  Name                       Area     Width   %Imperv    %Slope Rain Gage            Outlet              
  -----------------------------------------------------------------------------------------------------------
  Inlet~C#1                  0.44      1.00     65.00  100.0000 EWCPM~60min          Inlet~C             
  Inlet~E#1                  0.30      1.00     65.00  100.0000 EWCPM~60min          Inlet~E             
  Inlet~H#1                  0.99      1.00     65.00  100.0000 EWCPM~60min          Inlet~H             
  Inlet~G#1                  0.68      1.00     65.00  100.0000 EWCPM~60min          Inlet~G             
  Inlet~F#1                  0.67      1.00     65.00  100.0000 EWCPM~60min          Inlet~F             
  Inlet~D#1                  0.51      1.00     65.00  100.0000 EWCPM~60min          Inlet~D             
  Inlet~B#1                  0.24      1.00     65.00  100.0000 EWCPM~60min          Inlet~B             
  Inlet~A#1                  0.32      1.00     65.00  100.0000 EWCPM~60min          Inlet~A             
  
  
  ************
  Node Summary
  ************
                                           Invert      Max.    Ponded    External
  Name                 Type                 Elev.     Depth      Area    Inflow  
  -------------------------------------------------------------------------------
  MainDrain1           JUNCTION             43.10      3.00       0.0    Yes
  MainDrain2           JUNCTION             42.40      3.40       0.0
  MainDrain3           JUNCTION             41.80      3.40       0.0
  Inlet~C              JUNCTION             46.90      2.00       0.0
  Inlet~E              JUNCTION             46.40      2.00       0.0
  Inlet~H              JUNCTION             46.10      2.00       0.0
  Inlet~G              JUNCTION             45.80      2.00       0.0
  Inlet~F              JUNCTION             45.40      2.30       0.0
  Inlet~D              JUNCTION             47.10      2.30       0.0
  Inlet~B              JUNCTION             55.00      2.90       0.0
  Inlet~A              JUNCTION             53.40      2.00       0.0
  Riser                JUNCTION             44.70      4.00       0.0
  Lake                 OUTFALL              40.00      2.00       0.0
  Pond                 STORAGE              44.70      4.00       0.0
  
  
  ************
  Link Summary
  ************
  Name             From Node        To Node          Type            Length    %Slope Roughness
  ---------------------------------------------------------------------------------------------
  Drain1           MainDrain1       MainDrain2       CONDUIT          146.2    0.4788    0.0250
  Drain2           MainDrain2       MainDrain3       CONDUIT           97.6    0.6145    0.0250
  Drain3           MainDrain3       Lake             CONDUIT           48.6    1.6473    0.0250
  L7               Inlet~C          Inlet~E          CONDUIT           50.9    0.9826    0.0250
  L8               Inlet~E          Pond             CONDUIT           50.5    0.9903    0.0250
  L9               Inlet~H          Inlet~G          CONDUIT          139.1    0.2156    0.0250
  L10              Inlet~G          Inlet~F          CONDUIT          113.6    0.3521    0.0250
  L11              Inlet~F          Pond             CONDUIT           47.3    0.8459    0.0250
  L12              Inlet~B          Inlet~D          CONDUIT          129.2    6.1274    0.0250
  L13              Inlet~B          Inlet~A          CONDUIT           72.9    2.1965    0.0250
  L14              Inlet~A          Inlet~C          CONDUIT          137.5    4.7312    0.0250
  L15              Inlet~D          Inlet~H          CONDUIT          122.9    0.8138    0.0250
  culvert          Riser            MainDrain3       CONDUIT           40.0    7.2691    0.0250
  
  
  *********************
  Cross Section Summary
  *********************
                                        Full     Full     Hyd.     Max.   No. of     Full
  Conduit          Shape               Depth     Area     Rad.    Width  Barrels     Flow
  ---------------------------------------------------------------------------------------
  Drain1           TRAPEZOIDAL          3.00     9.00     1.00     3.00        1    24.91
  Drain2           TRAPEZOIDAL          3.40    10.20     1.04     3.00        1    32.85
  Drain3           TRAPEZOIDAL          1.00     3.00     0.60     3.00        1    10.96
  L7               TRAPEZOIDAL          2.00     2.00     0.40     1.00        1     4.31
  L8               TRAPEZOIDAL          2.00     2.00     0.40     1.00        1     4.32
  L9               TRAPEZOIDAL          2.00     2.00     0.40     1.00        1     2.02
  L10              TRAPEZOIDAL          2.00     2.00     0.40     1.00        1     2.58
  L11              TRAPEZOIDAL          2.00     2.00     0.40     1.00        1     4.00
  L12              TRAPEZOIDAL          2.00     2.00     0.40     1.00        1    10.75
  L13              TRAPEZOIDAL          2.00     2.00     0.40     1.00        1     6.44
  L14              TRAPEZOIDAL          2.00     2.00     0.40     1.00        1     9.45
  L15              TRAPEZOIDAL          2.00     2.00     0.40     1.00        1     3.92
  culvert          CIRCULAR             1.50     1.77     0.38     1.50        1     9.91
  
  
  ****************
  Analysis Options
  ****************
  Flow Units ............... CMS
  Process Models:
    Rainfall/Runoff ........ YES
    RDII ................... NO
    Snowmelt ............... NO
    Groundwater ............ NO
    Flow Routing ........... YES
    Ponding Allowed ........ NO
    Water Quality .......... YES
  Infiltration Method ...... HORTON
  Flow Routing Method ...... DYNWAVE
  Surcharge Method ......... EXTRAN
  Starting Date ............ 01/01/2008 00:00:00
  Ending Date .............. 01/01/2008 03:00:00
  Antecedent Dry Days ...... 0.0
  Report Time Step ......... 00:00:05
  Wet Time Step ............ 00:01:00
  Dry Time Step ............ 00:01:00
  Routing Time Step ........ 5.00 sec
  Variable Time Step ....... YES
  Maximum Trials ........... 8
  Number of Threads ........ 1
  Head Tolerance ........... 0.001524 m
  
  
  **************************        Volume         Depth
  Runoff Quantity Continuity     hectare-m            mm
  **************************     ---------       -------
  Total Precipitation ......         0.349        83.880
  Evaporation Loss .........         0.000         0.000
  Infiltration Loss ........         0.001         0.123
  Surface Runoff ...........         0.340        81.802
  Final Storage ............         0.008         1.985
  Continuity Error (%) .....        -0.036
  
  
  **************************           BMP
  Runoff Quality Continuity             kg
  **************************    ----------
  Initial Buildup ..........         0.000
  Surface Buildup ..........         0.000
  Wet Deposition ...........         0.000
  Sweeping Removal .........         0.000
  Infiltration Loss ........         0.000
  BMP Removal ..............         0.000
  Surface Runoff ...........         0.000
  Remaining Buildup ........         0.000
  Continuity Error (%) .....         0.000
  
  
  **************************        Volume        Volume
  Flow Routing Continuity        hectare-m      10^6 ltr
  **************************     ---------     ---------
  Dry Weather Inflow .......         0.000         0.000
  Wet Weather Inflow .......         0.340         3.400
  Groundwater Inflow .......         0.000         0.000
  RDII Inflow ..............         0.000         0.000
  External Inflow ..........         1.626        16.260
  External Outflow .........         1.598        15.976
  Flooding Loss ............         0.183         1.832
  Evaporation Loss .........         0.000         0.000
  Exfiltration Loss ........         0.000         0.000
  Initial Stored Volume ....         0.138         1.378
  Final Stored Volume ......         0.321         3.214
  Continuity Error (%) .....         0.083
  
  
  **************************           BMP
  Quality Routing Continuity            kg
  **************************    ----------
  Dry Weather Inflow .......         0.000
  Wet Weather Inflow .......         0.000
  Groundwater Inflow .......         0.000
  RDII Inflow ..............         0.000
  External Inflow ..........         0.000
  External Outflow .........         0.000
  Flooding Loss ............         0.000
  Exfiltration Loss ........         0.000
  Mass Reacted .............         0.000
  Initial Stored Mass ......         0.000
  Final Stored Mass ........         0.000
  Continuity Error (%) .....         0.000
  
  
  *************************
  Highest Continuity Errors
  *************************
  Node Inlet~D (13.94%)
  Node Inlet~H (12.38%)
  Node Inlet~C (10.71%)
  Node Inlet~G (9.10%)
  Node Inlet~E (6.84%)
  
  
  ***************************
  Time-Step Critical Elements
  ***************************
  None
  
  
  ********************************
  Highest Flow Instability Indexes
  ********************************
  Link L7 (7)
  Link L15 (5)
  Link L11 (4)
  Link L8 (2)
  
  
  *********************************
  Most Frequent Nonconverging Nodes
  *********************************
  Node Lake (0.09%)
  Node Inlet~F (0.05%)
  Node MainDrain1 (0.05%)
  
  
  *************************
  Routing Time Step Summary
  *************************
  Minimum Time Step           :     2.16 sec
  Average Time Step           :     5.00 sec
  Maximum Time Step           :     5.00 sec
  % of Time in Steady State   :     0.00
  Average Iterations per Step :     2.05
  % of Steps Not Converging   :     0.09
  Time Step Frequencies       :
      5.000 -  3.155 sec      :    99.91 %
      3.155 -  1.991 sec      :     0.09 %
      1.991 -  1.256 sec      :     0.00 %
      1.256 -  0.792 sec      :     0.00 %
      0.792 -  0.500 sec      :     0.00 %
  
  
  ***************************
  Subcatchment Runoff Summary
  ***************************
  
  ------------------------------------------------------------------------------------------------------------------------------
                            Total      Total      Total      Total     Imperv       Perv      Total       Total     Peak  Runoff
                           Precip      Runon       Evap      Infil     Runoff     Runoff     Runoff      Runoff   Runoff   Coeff
  Subcatchment                 mm         mm         mm         mm         mm         mm         mm    10^6 ltr      CMS
  ------------------------------------------------------------------------------------------------------------------------------
  Inlet~C#1                 83.88       0.00       0.00       0.12      53.19      29.02      82.22        0.36     0.23   0.980
  Inlet~E#1                 83.88       0.00       0.00       0.12      53.35      29.12      82.47        0.25     0.17   0.983
  Inlet~H#1                 83.88       0.00       0.00       0.12      52.44      28.53      80.97        0.80     0.38   0.965
  Inlet~G#1                 83.88       0.00       0.00       0.12      52.89      28.83      81.72        0.55     0.30   0.974
  Inlet~F#1                 83.88       0.00       0.00       0.12      52.90      28.84      81.74        0.55     0.30   0.975
  Inlet~D#1                 83.88       0.00       0.00       0.12      53.12      28.97      82.09        0.42     0.25   0.979
  Inlet~B#1                 83.88       0.00       0.00       0.12      53.41      29.16      82.57        0.20     0.14   0.984
  Inlet~A#1                 83.88       0.00       0.00       0.12      53.33      29.11      82.44        0.27     0.18   0.983
  
  
  ****************************
  Subcatchment Washoff Summary
  ****************************
  
  ----------------------------------
                                 BMP
  Subcatchment                    kg
  ----------------------------------
  Inlet~C#1                    0.000
  Inlet~E#1                    0.000
  Inlet~H#1                    0.000
  Inlet~G#1                    0.000
  Inlet~F#1                    0.000
  Inlet~D#1                    0.000
  Inlet~B#1                    0.000
  Inlet~A#1                    0.000
  ----------------------------------
  System                       0.000
  
  
  ******************
  Node Depth Summary
  ******************
  
  ---------------------------------------------------------------------------------
                                 Average  Maximum  Maximum  Time of Max    Reported
                                   Depth    Depth      HGL   Occurrence   Max Depth
  Node                 Type       Meters   Meters   Meters  days hr:min      Meters
  ---------------------------------------------------------------------------------
  MainDrain1           JUNCTION     0.40     0.41    43.51     0  00:03        0.41
  MainDrain2           JUNCTION     0.37     0.37    42.77     0  00:05        0.37
  MainDrain3           JUNCTION     0.26     0.29    42.09     0  00:01        0.29
  Inlet~C              JUNCTION     0.70     0.87    47.77     0  00:32        0.87
  Inlet~E              JUNCTION     1.15     1.35    47.75     0  00:32        1.35
  Inlet~H              JUNCTION     1.46     1.68    47.78     0  00:34        1.68
  Inlet~G              JUNCTION     1.75     1.95    47.75     0  00:33        1.95
  Inlet~F              JUNCTION     2.15     2.30    47.70     0  00:31        2.30
  Inlet~D              JUNCTION     0.53     0.71    47.81     0  00:33        0.71
  Inlet~B              JUNCTION     0.01     0.06    55.06     0  00:25        0.06
  Inlet~A              JUNCTION     0.03     0.12    53.52     0  00:25        0.12
  Riser                JUNCTION     0.00     0.00    44.70     0  00:00        0.00
  Lake                 OUTFALL      2.00     2.00    42.00     0  00:00        2.00
  Pond                 STORAGE      2.85     3.04    47.74     0  00:32        3.04
  
  
  *******************
  Node Inflow Summary
  *******************
  
  -------------------------------------------------------------------------------------------------
                                  Maximum  Maximum                  Lateral       Total        Flow
                                  Lateral    Total  Time of Max      Inflow      Inflow     Balance
                                   Inflow   Inflow   Occurrence      Volume      Volume       Error
  Node                 Type           CMS      CMS  days hr:min    10^6 ltr    10^6 ltr     Percent
  -------------------------------------------------------------------------------------------------
  MainDrain1           JUNCTION     1.500    1.500     0  00:00        16.2        16.2       0.538
  MainDrain2           JUNCTION     0.000    1.539     0  00:02           0        16.1       0.852
  MainDrain3           JUNCTION     0.000    1.505     0  00:06           0          16       0.388
  Inlet~C              JUNCTION     0.226    0.445     0  00:25       0.363       0.705      11.991
  Inlet~E              JUNCTION     0.168    0.491     0  00:23        0.25        0.88       7.347
  Inlet~H              JUNCTION     0.380    0.682     0  00:24       0.804        1.27      14.124
  Inlet~G              JUNCTION     0.304    0.814     0  00:34       0.554        1.67      10.012
  Inlet~F              JUNCTION     0.301    1.881     0  00:33       0.546        2.54       3.026
  Inlet~D              JUNCTION     0.249    0.334     0  00:25       0.415       0.541      16.194
  Inlet~B              JUNCTION     0.139    0.139     0  00:25       0.201       0.201       0.033
  Inlet~A              JUNCTION     0.177    0.228     0  00:25       0.267       0.342       0.058
  Riser                JUNCTION     0.000    0.000     0  00:00           0           0       0.000 ltr
  Lake                 OUTFALL      0.000    1.503     0  00:06           0          16       0.000
  Pond                 STORAGE      0.000    1.243     0  00:25           0        2.47       2.467
  
  
  **********************
  Node Surcharge Summary
  **********************
  
  Surcharging occurs when water rises above the top of the highest conduit.
  ---------------------------------------------------------------------
                                               Max. Height   Min. Depth
                                   Hours       Above Crown    Below Rim
  Node                 Type      Surcharged         Meters       Meters
  ---------------------------------------------------------------------
  Inlet~F              JUNCTION        2.55          0.300        0.000
  
  
  *********************
  Node Flooding Summary
  *********************
  
  Flooding refers to all water that overflows a node, whether it ponds or not.
  --------------------------------------------------------------------------
                                                             Total   Maximum
                                 Maximum   Time of Max       Flood    Ponded
                        Hours       Rate    Occurrence      Volume     Depth
  Node                 Flooded       CMS   days hr:min    10^6 ltr    Meters
  --------------------------------------------------------------------------
  Inlet~F                 2.47     1.881      0  00:33       1.832     0.000
  
  
  **********************
  Storage Volume Summary
  **********************
  
  ------------------------------------------------------------------------------------------------
                         Average    Avg   Evap  Exfil     Maximum    Max    Time of Max    Maximum
                          Volume   Pcnt   Pcnt   Pcnt      Volume   Pcnt     Occurrence    Outflow
  Storage Unit           1000 mł   Full   Loss   Loss     1000 mł   Full    days hr:min        CMS
  ------------------------------------------------------------------------------------------------
  Pond                     1.819   64.1    0.0    0.0       1.970   69.4       0  00:32      0.887
  
  
  ***********************
  Outfall Loading Summary
  ***********************
  
  -------------------------------------------------------------------------
                         Flow       Avg       Max       Total         Total
                         Freq      Flow      Flow      Volume           BMP
  Outfall Node           Pcnt       CMS       CMS    10^6 ltr            kg
  -------------------------------------------------------------------------
  Lake                 100.00     1.485     1.503      16.038         0.000
  -------------------------------------------------------------------------
  System               100.00     1.485     1.503      16.038         0.000
  
  
  ********************
  Link Flow Summary
  ********************
  
  -----------------------------------------------------------------------------
                                 Maximum  Time of Max   Maximum    Max/    Max/
                                  |Flow|   Occurrence   |Veloc|    Full    Full
  Link                 Type          CMS  days hr:min     m/sec    Flow   Depth
  -----------------------------------------------------------------------------
  Drain1               CONDUIT     1.539     0  00:02      1.77    0.06    0.13
  Drain2               CONDUIT     1.505     0  00:06      1.58    0.05    0.09
  Drain3               CONDUIT     1.503     0  00:06      0.79    0.14    0.65
  L7                   CONDUIT     0.356     0  00:33      0.97    0.08    0.56
  L8                   CONDUIT     0.483     0  00:33      0.51    0.11    0.80
  L9                   CONDUIT     0.602     0  00:34      0.37    0.30    0.91
  L10                  CONDUIT     0.831     0  00:34      0.42    0.32    0.99
  L11                  CONDUIT     0.887     0  00:33      0.44    0.22    1.00
  L12                  CONDUIT     0.085     0  00:25      0.59    0.01    0.19
  L13                  CONDUIT     0.051     0  00:25      0.57    0.01    0.05
  L14                  CONDUIT     0.222     0  00:25      1.04    0.02    0.24
  L15                  CONDUIT     0.327     0  00:24      0.53    0.08    0.60
  culvert              CONDUIT     0.000     0  00:00      0.00    0.00    0.10
  
  
  ***************************
  Flow Classification Summary
  ***************************
  
  -------------------------------------------------------------------------------------
                      Adjusted    ---------- Fraction of Time in Flow Class ---------- 
                       /Actual         Up    Down  Sub   Sup   Up    Down  Norm  Inlet 
  Conduit               Length    Dry  Dry   Dry   Crit  Crit  Crit  Crit  Ltd   Ctrl  
  -------------------------------------------------------------------------------------
  Drain1                  1.00   0.00  0.00  0.00  1.00  0.00  0.00  0.00  0.00  0.00
  Drain2                  1.00   0.00  0.00  0.00  1.00  0.00  0.00  0.00  0.01  0.00
  Drain3                  1.00   0.00  0.00  0.00  1.00  0.00  0.00  0.00  0.99  0.00
  L7                      1.00   0.00  0.00  0.00  1.00  0.00  0.00  0.00  0.08  0.00
  L8                      1.00   0.00  0.00  0.00  1.00  0.00  0.00  0.00  0.00  0.00
  L9                      1.00   0.00  0.00  0.00  1.00  0.00  0.00  0.00  0.00  0.00
  L10                     1.00   0.00  0.00  0.00  1.00  0.00  0.00  0.00  0.00  0.00
  L11                     1.00   0.00  0.00  0.00  1.00  0.00  0.00  0.00  0.00  0.00
  L12                     1.00   0.00  0.00  0.00  0.98  0.02  0.00  0.00  0.98  0.00
  L13                     1.00   0.00  0.00  0.00  1.00  0.00  0.00  0.00  0.97  0.00
  L14                     1.00   0.00  0.00  0.00  1.00  0.00  0.00  0.00  0.98  0.00
  L15                     1.00   0.00  0.00  0.00  1.00  0.00  0.00  0.00  0.11  0.00
  culvert                 1.00   0.00  1.00  0.00  0.00  0.00  0.00  0.00  0.00  0.00
  
  
  *************************
  Conduit Surcharge Summary
  *************************
  
  ----------------------------------------------------------------------------
                                                           Hours        Hours 
                         --------- Hours Full --------   Above Full   Capacity
  Conduit                Both Ends  Upstream  Dnstream   Normal Flow   Limited
  ----------------------------------------------------------------------------
  L10                         0.01      0.01      2.55      0.01         0.01
  L11                         2.55      2.55      2.64      0.01         0.01
  
  
  ***************************
  Link Pollutant Load Summary
  ***************************
  
  ----------------------------------
                                 BMP
  Link                            kg
  ----------------------------------
  Drain1                       0.000
  Drain2                       0.000
  Drain3                       0.000
  L7                           0.000
  L8                           0.000
  L9                           0.000
  L10                          0.000
  L11                          0.000
  L12                          0.000
  L13                          0.000
  L14                          0.000
  L15                          0.000
  culvert                      0.000
  

  Analysis begun on:  Tue Jun 23 21:00:04 2026
  Analysis ended on:  Tue Jun 23 21:00:04 2026
  Total elapsed time: < 1 sec