
  EPA STORM WATER MANAGEMENT MODEL - VERSION 5.2 (Build 5.2.4)
  ------------------------------------------------------------

  
  ERROR 207: duplicate ID name VCL at line 2626 of [CONDUIT] section:
  VCL Upper.1 VCL Upper VCL Lower 15.240000 0.012000 0.640080 1.249680 0.000000


  Analysis begun on:  Tue Jun 23 21:00:04 2026
  Analysis ended on:  Tue Jun 23 21:00:04 2026
  Total elapsed time: < 1 sec