
  EPA STORM WATER MANAGEMENT MODEL - VERSION 5.2 (Build 5.2.4)
  ------------------------------------------------------------

  WARNING 03: negative offset ignored for Link C100
  WARNING 03: negative offset ignored for Link C109
  
  ****************
  Analysis Options
  ****************
  Flow Units ............... GPM
  Process Models:
    Rainfall/Runoff ........ NO
    RDII ................... NO
    Snowmelt ............... NO
    Groundwater ............ NO
    Flow Routing ........... YES
    Ponding Allowed ........ YES
    Water Quality .......... NO
  Flow Routing Method ...... DYNWAVE
  Surcharge Method ......... EXTRAN
  Starting Date ............ 12/12/2018 00:00:00
  Ending Date .............. 12/13/2018 00:00:00
  Antecedent Dry Days ...... 5.0
  Report Time Step ......... 00:01:00
  Routing Time Step ........ 5.00 sec
  Variable Time Step ....... YES
  Maximum Trials ........... 8
  Number of Threads ........ 1
  Head Tolerance ........... 0.000100 ft
  
  
  **************************        Volume        Volume
  Flow Routing Continuity        acre-feet      10^6 gal
  **************************     ---------     ---------
  Dry Weather Inflow .......         0.192         0.062
  Wet Weather Inflow .......         0.000         0.000
  Groundwater Inflow .......         0.000         0.000
  RDII Inflow ..............         0.000         0.000
  External Inflow ..........         0.000         0.000
  External Outflow .........         0.173         0.056
  Flooding Loss ............         0.000         0.000
  Evaporation Loss .........         0.000         0.000
  Exfiltration Loss ........         0.000         0.000
  Initial Stored Volume ....         0.000         0.000
  Final Stored Volume ......         0.010         0.003
  Continuity Error (%) .....         4.842
  
  
  *************************
  Highest Continuity Errors
  *************************
  Node N122 (9.90%)
  Node N121 (6.09%)
  Node LS3 (3.64%)
  Node LS2 (3.25%)
  Node N123 (2.45%)
  
  
  ***************************
  Time-Step Critical Elements
  ***************************
  Link C124 (8.29%)
  
  
  ********************************
  Highest Flow Instability Indexes
  ********************************
  Link LS1_PUMP1 (3)
  Link C124 (3)
  Link C123 (3)
  Link C120 (2)
  Link C4 (1)
  
  
  *********************************
  Most Frequent Nonconverging Nodes
  *********************************
  Node OUTFALL (15.74%)
  Node N124 (6.87%)
  Node N120 (6.55%)
  Node N123 (6.27%)
  Node LS1 (2.05%)
  
  
  *************************
  Routing Time Step Summary
  *************************
  Minimum Time Step           :     0.54 sec
  Average Time Step           :     4.99 sec
  Maximum Time Step           :     5.00 sec
  % of Time in Steady State   :     0.00
  Average Iterations per Step :     3.87
  % of Steps Not Converging   :    15.74
  Time Step Frequencies       :
      5.000 -  0.910 sec      :    99.99 %
      0.910 -  0.166 sec      :     0.01 %
      0.166 -  0.030 sec      :     0.00 %
      0.030 -  0.005 sec      :     0.00 %
      0.005 -  0.001 sec      :     0.00 %
  
  
  ******************
  Node Depth Summary
  ******************
  
  ---------------------------------------------------------------------------------
                                 Average  Maximum  Maximum  Time of Max    Reported
                                   Depth    Depth      HGL   Occurrence   Max Depth
  Node                 Type         Feet     Feet     Feet  days hr:min        Feet
  ---------------------------------------------------------------------------------
  N1                   JUNCTION     0.05     0.28   156.43     0  09:26        0.27
  N10                  JUNCTION     0.07     0.12   146.48     0  07:55        0.12
  N100                 JUNCTION     0.00     0.00   157.46     0  00:00        0.00
  N101                 JUNCTION     0.08     0.15   161.63     0  07:45        0.15
  N102                 JUNCTION     0.00     0.00   163.61     0  00:00        0.00
  N103                 JUNCTION     0.01     0.02   161.33     0  08:00        0.02
  N104                 JUNCTION     0.00     0.00   160.85     0  00:00        0.00
  N105                 JUNCTION     0.01     0.01   151.98     0  08:00        0.01
  N106                 JUNCTION     0.00     0.00   154.63     0  00:00        0.00
  N107                 JUNCTION     0.01     0.02   153.29     0  08:00        0.02
  N108                 JUNCTION     0.00     0.00   154.24     0  00:00        0.00
  N109                 JUNCTION     0.03     0.04   166.17     0  08:00        0.04
  N11                  JUNCTION     0.12     0.19   144.74     0  07:55        0.19
  N110                 JUNCTION     0.03     0.04   167.14     0  08:00        0.04
  N111                 JUNCTION     0.01     0.02   168.20     0  08:00        0.02
  N112                 JUNCTION     0.00     0.00   169.00     0  00:00        0.00
  N113                 JUNCTION     0.00     0.00   167.90     0  00:00        0.00
  N114                 JUNCTION     0.00     0.00   170.39     0  00:00        0.00
  N115                 JUNCTION     0.00     0.00   104.71     0  00:00        0.00
  N116                 JUNCTION     0.00     0.00   173.76     0  00:00        0.00
  N117                 JUNCTION     0.00     0.00   169.03     0  00:00        0.00
  N118                 JUNCTION     0.05     0.08   127.18     0  08:00        0.08
  N119                 JUNCTION     0.04     0.05   121.63     0  08:00        0.05
  N12                  JUNCTION     0.05     0.09   157.49     0  07:47        0.09
  N120                 JUNCTION    21.55   166.56   268.81     0  15:48      139.12
  N121                 JUNCTION     7.69    89.59   195.09     0  06:05       82.34
  N122                 JUNCTION     6.45   168.65   266.15     0  06:50       98.01
  N123                 JUNCTION     0.03     0.19   153.19     0  07:57        0.19
  N124                 JUNCTION     0.03     0.18   149.18     0  07:57        0.18
  N13                  JUNCTION     0.09     0.14   159.11     0  07:46        0.14
  N14                  JUNCTION     0.02     0.02   166.07     0  08:00        0.02
  N15                  JUNCTION     0.02     0.03   167.48     0  08:00        0.03
  N16                  JUNCTION     0.02     0.03   169.23     0  08:00        0.03
  N17                  JUNCTION     0.02     0.03   171.03     0  08:00        0.03
  N18                  JUNCTION     0.05     0.07   163.28     0  08:00        0.07
  N19                  JUNCTION     0.03     0.04   166.58     0  08:00        0.04
  N2                   JUNCTION     0.06     0.17   155.14     0  08:45        0.17
  N20                  JUNCTION     0.03     0.04   167.75     0  08:00        0.04
  N21                  JUNCTION     0.06     0.08   164.28     0  08:00        0.08
  N22                  JUNCTION     0.04     0.05   165.36     0  08:00        0.05
  N23                  JUNCTION     0.03     0.03   163.13     0  08:00        0.03
  N24                  JUNCTION     0.00     0.00   165.55     0  00:00        0.00
  N25                  JUNCTION     0.02     0.03   151.23     0  08:00        0.03
  N26                  JUNCTION     0.00     0.00   163.40     0  00:00        0.00
  N27                  JUNCTION     0.00     0.00   164.65     0  00:00        0.00
  N28                  JUNCTION     0.02     0.03   161.41     0  08:00        0.03
  N29                  JUNCTION     0.20     0.23   158.23     0  08:00        0.23
  N3                   JUNCTION     0.10     0.18   152.88     0  08:48        0.18
  N30                  JUNCTION     0.03     0.04   154.69     0  08:00        0.04
  N31                  JUNCTION     0.00     0.00   162.00     0  00:00        0.00
  N32                  JUNCTION     0.02     0.02   152.52     0  08:00        0.02
  N33                  JUNCTION     0.02     0.03   136.83     0  08:00        0.03
  N34                  JUNCTION     0.04     0.06   110.32     0  08:00        0.06
  N35                  JUNCTION     0.06     0.09   103.96     0  08:00        0.09
  N36                  JUNCTION     0.06     0.09   102.04     0  08:00        0.09
  N37                  JUNCTION     0.04     0.06   118.06     0  08:00        0.06
  N38                  JUNCTION     0.06     0.09   100.62     0  08:00        0.09
  N39                  JUNCTION     0.07     0.11    98.74     0  08:00        0.11
  N4                   JUNCTION     0.00     0.00   165.30     0  00:00        0.00
  N40                  JUNCTION     0.02     0.03   110.43     0  08:00        0.03
  N41                  JUNCTION     0.03     0.04   124.14     0  08:00        0.04
  N42                  JUNCTION     0.02     0.03   144.43     0  08:00        0.03
  N43                  JUNCTION     0.03     0.04   147.49     0  08:00        0.04
  N44                  JUNCTION     0.03     0.04   150.64     0  08:00        0.04
  N45                  JUNCTION     0.02     0.02   152.72     0  08:00        0.02
  N46                  JUNCTION     0.00     0.00   154.80     0  00:00        0.00
  N47                  JUNCTION     0.02     0.03   157.43     0  08:00        0.03
  N48                  JUNCTION     0.00     0.00   163.90     0  00:00        0.00
  N49                  JUNCTION     0.00     0.00   161.60     0  00:00        0.00
  N5                   JUNCTION     0.07     0.13   150.57     0  08:10        0.13
  N50                  JUNCTION     0.00     0.00   160.85     0  00:00        0.00
  N51                  JUNCTION     0.00     0.00   142.60     0  00:00        0.00
  N52                  JUNCTION     0.00     0.00   158.00     0  00:00        0.00
  N53                  JUNCTION     0.02     0.03   155.03     0  08:00        0.03
  N54                  JUNCTION     0.02     0.02   151.77     0  08:00        0.02
  N55                  JUNCTION     0.02     0.03   123.98     0  08:00        0.03
  N56                  JUNCTION     0.02     0.03   118.03     0  08:00        0.03
  N57                  JUNCTION     0.04     0.05   111.05     0  08:00        0.05
  N58                  JUNCTION     0.00     0.00   160.65     0  00:00        0.00
  N59                  JUNCTION     0.00     0.00   156.60     0  00:00        0.00
  N6                   JUNCTION     0.02     0.03   159.03     0  08:00        0.03
  N60                  JUNCTION     0.00     0.00   126.40     0  00:00        0.00
  N61                  JUNCTION     0.02     0.03   122.03     0  08:00        0.03
  N62                  JUNCTION     0.04     0.05   104.55     0  08:00        0.05
  N63                  JUNCTION     0.02     0.03   138.03     0  08:00        0.03
  N64                  JUNCTION     0.02     0.02   150.02     0  08:00        0.02
  N65                  JUNCTION     0.01     0.01   157.66     0  07:49        0.01
  N66                  JUNCTION     0.00     0.00   161.30     0  00:00        0.00
  N67                  JUNCTION     0.01     0.02   153.52     0  08:00        0.02
  N68                  JUNCTION     0.00     0.00   155.85     0  00:00        0.00
  N69                  JUNCTION     0.00     0.00    97.35     0  00:00        0.00
  N7                   JUNCTION     0.02     0.03   162.15     0  08:00        0.03
  N70                  JUNCTION     0.04     0.06    94.86     0  08:00        0.06
  N71                  JUNCTION     0.03     0.04    99.04     0  08:00        0.04
  N72                  JUNCTION     0.01     0.01   112.01     0  08:00        0.01
  N73                  JUNCTION     0.00     0.00   124.70     0  00:00        0.00
  N74                  JUNCTION     0.03     0.05   103.05     0  08:00        0.05
  N75                  JUNCTION     0.03     0.04   122.44     0  08:00        0.04
  N76                  JUNCTION     0.03     0.04   131.69     0  08:00        0.04
  N77                  JUNCTION     0.03     0.04   143.34     0  08:00        0.04
  N78                  JUNCTION     0.02     0.03   149.53     0  08:00        0.03
  N79                  JUNCTION     0.01     0.02   159.92     0  08:00        0.02
  N8                   JUNCTION     0.00     0.00   165.25     0  00:00        0.00
  N80                  JUNCTION     0.02     0.02   163.62     0  08:00        0.02
  N81                  JUNCTION     0.01     0.01   167.21     0  08:00        0.01
  N82                  JUNCTION     0.02     0.03   150.53     0  08:00        0.03
  N83                  JUNCTION     0.02     0.03   154.03     0  08:00        0.03
  N84                  JUNCTION     0.01     0.02   161.02     0  08:00        0.02
  N85                  JUNCTION     0.01     0.02   167.97     0  08:00        0.02
  N86                  JUNCTION     0.02     0.02   169.27     0  08:00        0.02
  N87                  JUNCTION     0.02     0.02   170.67     0  08:00        0.02
  N88                  JUNCTION     0.01     0.01   172.66     0  08:00        0.01
  N89                  JUNCTION     0.02     0.03   150.03     0  07:18        0.03
  N9                   JUNCTION     0.07     0.12   148.60     0  08:12        0.12
  N90                  JUNCTION     0.00     0.00   145.91     0  00:00        0.00
  N91                  JUNCTION     0.05     0.07   131.36     0  08:00        0.07
  N92                  JUNCTION     1.61     1.87   132.39     0  08:00        1.87
  N93                  JUNCTION     0.04     0.06   133.58     0  08:00        0.06
  N94                  JUNCTION     0.03     0.04   134.76     0  08:00        0.04
  N95                  JUNCTION     0.02     0.02   145.82     0  08:00        0.02
  N96                  JUNCTION     0.01     0.02   148.96     0  08:00        0.02
  N97                  JUNCTION     0.01     0.02   142.16     0  08:00        0.02
  N98                  JUNCTION     0.00     0.00   135.52     0  00:00        0.00
  N99                  JUNCTION     0.01     0.01   153.47     0  07:53        0.01
  OUTFALL              OUTFALL      0.03     0.18   145.18     0  08:34        0.18
  LS1                  STORAGE      2.73     4.02    97.57     0  07:36        4.02
  LS2                  STORAGE      2.48     4.01   102.51     0  06:45        4.00
  LS3                  STORAGE      1.84     3.01    93.06     0  07:27        3.00
  LS4                  STORAGE      3.16     5.07   144.07     0  07:56        5.07
  
  
  *******************
  Node Inflow Summary
  *******************
  
  -------------------------------------------------------------------------------------------------
                                  Maximum  Maximum                  Lateral       Total        Flow
                                  Lateral    Total  Time of Max      Inflow      Inflow     Balance
                                   Inflow   Inflow   Occurrence      Volume      Volume       Error
  Node                 Type           GPM      GPM  days hr:min    10^6 gal    10^6 gal     Percent
  -------------------------------------------------------------------------------------------------
  N1                   JUNCTION      0.31   296.51     0  09:03    0.000249      0.0169       1.715
  N10                  JUNCTION      0.47    38.93     0  07:54    0.000374      0.0206       0.070
  N100                 JUNCTION      0.00     0.00     0  00:00           0           0       0.000 gal
  N101                 JUNCTION      1.09   152.16     0  07:58    0.000873      0.0313       0.991
  N102                 JUNCTION      0.00     0.00     0  00:00           0           0       0.000 gal
  N103                 JUNCTION      1.40     1.40     0  07:00     0.00112     0.00112       0.157
  N104                 JUNCTION      0.00     0.00     0  00:00           0           0       0.000 gal
  N105                 JUNCTION      0.78     0.78     0  07:00    0.000623    0.000623       0.152
  N106                 JUNCTION      0.00     0.00     0  00:00           0           0       0.000 gal
  N107                 JUNCTION      0.94     0.94     0  07:00    0.000748    0.000748       0.326
  N108                 JUNCTION      0.00     0.00     0  00:00           0           0       0.000 gal
  N109                 JUNCTION      0.47     4.37     0  07:59    0.000374     0.00348       0.108
  N11                  JUNCTION      0.78    92.09     0  07:54    0.000623      0.0585       0.145
  N110                 JUNCTION      3.27     3.90     0  07:59     0.00262     0.00312       0.185
  N111                 JUNCTION      0.62     0.62     0  07:00    0.000499    0.000499       0.322
  N112                 JUNCTION      0.00     0.00     0  00:00           0           0       0.000 gal
  N113                 JUNCTION      0.00     0.00     0  00:00           0           0       0.000 gal
  N114                 JUNCTION      0.00     0.00     0  00:00           0           0       0.000 gal
  N115                 JUNCTION      0.00     0.00     0  00:00           0           0       0.000 gal
  N116                 JUNCTION      0.00     0.00     0  00:00           0           0       0.000 gal
  N117                 JUNCTION      0.00     0.00     0  00:00           0           0       0.000 gal
  N118                 JUNCTION      0.00    12.00     0  08:00           0     0.00934       0.324
  N119                 JUNCTION      0.31    16.37     0  08:00    0.000249      0.0128       0.097
  N12                  JUNCTION      0.47    53.53     0  07:46    0.000374      0.0362       0.072
  N120                 JUNCTION      0.00   142.00     0  05:01           0      0.0222       2.146
  N121                 JUNCTION      0.00   142.00     0  05:15           0     0.00898       6.481
  N122                 JUNCTION      0.00   142.00     0  05:18           0     0.00678      10.993
  N123                 JUNCTION      0.00   301.00     0  04:54           0       0.058       2.508
  N124                 JUNCTION      0.00   301.04     0  08:20           0      0.0566       0.660
  N13                  JUNCTION      0.94    62.34     0  07:45    0.000748      0.0359       0.138
  N14                  JUNCTION      0.47     2.49     0  08:00    0.000374     0.00198       0.180
  N15                  JUNCTION      0.47     2.03     0  08:00    0.000374     0.00161       0.345
  N16                  JUNCTION      0.47     1.56     0  08:00    0.000374     0.00124       0.481
  N17                  JUNCTION      1.09     1.09     0  07:00    0.000873    0.000873       0.544
  N18                  JUNCTION      1.40    11.07     0  08:00     0.00112     0.00879       0.178
  N19                  JUNCTION      2.18     3.59     0  08:00     0.00175     0.00286       0.141
  N2                   JUNCTION      0.16   184.89     0  09:26    0.000124      0.0167       0.103
  N20                  JUNCTION      1.40     1.40     0  07:00     0.00112     0.00112       0.922
  N21                  JUNCTION      1.09     6.08     0  08:00    0.000873     0.00484       0.636
  N22                  JUNCTION      0.62     4.99     0  07:59    0.000499     0.00398       0.281
  N23                  JUNCTION      2.65     2.65     0  07:00     0.00212     0.00212       0.377
  N24                  JUNCTION      0.00     0.00     0  00:00           0           0       0.000 gal
  N25                  JUNCTION      1.40     1.40     0  07:00     0.00112     0.00112       0.344
  N26                  JUNCTION      0.00     0.00     0  00:00           0           0       0.000 gal
  N27                  JUNCTION      0.00     0.00     0  00:00           0           0       0.000 gal
  N28                  JUNCTION      1.40     1.40     0  07:00     0.00112     0.00112       0.433
  N29                  JUNCTION      0.62     2.03     0  08:00    0.000499     0.00162       1.983
  N3                   JUNCTION      1.56    79.06     0  08:45     0.00125       0.018       0.115
  N30                  JUNCTION      1.09     3.12     0  08:00    0.000873     0.00246       0.311
  N31                  JUNCTION      0.00     0.00     0  00:00           0           0       0.000 gal
  N32                  JUNCTION      0.16     3.27     0  08:00    0.000124     0.00257       0.145
  N33                  JUNCTION      0.78     4.05     0  08:00    0.000623     0.00319       0.109
  N34                  JUNCTION      1.25    17.61     0  08:00    0.000997      0.0137       0.118
  N35                  JUNCTION      0.62    18.24     0  08:00    0.000499      0.0142       0.248
  N36                  JUNCTION      0.62    18.86     0  08:00    0.000499      0.0147       0.126
  N37                  JUNCTION      0.00    16.37     0  08:00           0      0.0127       0.128
  N38                  JUNCTION      0.94    19.80     0  08:00    0.000748      0.0154       0.159
  N39                  JUNCTION      1.09    28.52     0  08:00    0.000873      0.0223       0.042
  N4                   JUNCTION      0.00     0.00     0  00:00           0           0       0.000 gal
  N40                  JUNCTION      0.94     7.64     0  08:00    0.000748     0.00606       0.087
  N41                  JUNCTION      0.94     6.70     0  08:00    0.000748     0.00532       0.231
  N42                  JUNCTION      0.47     5.77     0  08:00    0.000374     0.00458       0.129
  N43                  JUNCTION      1.40     5.30     0  08:00     0.00112     0.00422       0.257
  N44                  JUNCTION      0.78     3.90     0  08:00    0.000623     0.00311       0.437
  N45                  JUNCTION      0.94     0.94     0  07:00    0.000748    0.000748       0.448
  N46                  JUNCTION      0.00     0.00     0  00:00           0           0       0.000 gal
  N47                  JUNCTION      2.18     2.18     0  07:00     0.00175     0.00175       0.273
  N48                  JUNCTION      0.00     0.00     0  00:00           0           0       0.000 gal
  N49                  JUNCTION      0.00     0.00     0  00:00           0           0       0.000 gal
  N5                   JUNCTION      2.49    50.93     0  08:48     0.00199      0.0199       0.140
  N50                  JUNCTION      0.00     0.00     0  00:00           0           0       0.000 gal
  N51                  JUNCTION      0.00     0.00     0  00:00           0           0       0.000 gal
  N52                  JUNCTION      0.00     0.00     0  00:00           0           0       0.000 gal
  N53                  JUNCTION      1.40     1.40     0  07:00     0.00112     0.00112       0.624
  N54                  JUNCTION      1.71     3.12     0  08:00     0.00137     0.00249       0.236
  N55                  JUNCTION      2.03     5.14     0  08:00     0.00162      0.0041       0.237
  N56                  JUNCTION      0.31     4.83     0  08:00    0.000249     0.00385       0.191
  N57                  JUNCTION      1.25    11.22     0  08:00    0.000997     0.00893       0.160
  N58                  JUNCTION      0.00     0.00     0  00:00           0           0       0.000 gal
  N59                  JUNCTION      0.00     0.00     0  00:00           0           0       0.000 gal
  N6                   JUNCTION      0.94     2.65     0  08:00    0.000748     0.00211       0.218
  N60                  JUNCTION      0.00     0.00     0  00:00           0           0       0.000 gal
  N61                  JUNCTION      0.62     4.52     0  08:00    0.000499      0.0036       0.118
  N62                  JUNCTION      0.47    11.69     0  08:00    0.000374     0.00929       0.040
  N63                  JUNCTION      1.56     3.90     0  08:00     0.00125     0.00311       0.156
  N64                  JUNCTION      0.94     2.34     0  08:00    0.000748     0.00187       0.192
  N65                  JUNCTION      0.78     0.78     0  07:00    0.000623    0.000623       0.231
  N66                  JUNCTION      0.00     0.00     0  00:00           0           0       0.000 gal
  N67                  JUNCTION      0.62     0.62     0  07:00    0.000499    0.000499       0.347
  N68                  JUNCTION      0.00     0.00     0  00:00           0           0       0.000 gal
  N69                  JUNCTION      0.00     0.00     0  00:00           0           0       0.000 gal
  N7                   JUNCTION      1.71     1.71     0  07:00     0.00137     0.00137       0.567
  N70                  JUNCTION      0.16     8.88     0  08:00    0.000124     0.00704       0.062
  N71                  JUNCTION      0.00     8.73     0  08:00           0     0.00692       0.073
  N72                  JUNCTION      0.62     0.62     0  07:00    0.000499    0.000499       0.194
  N73                  JUNCTION      0.00     0.00     0  00:00           0           0       0.000 gal
  N74                  JUNCTION      0.47     8.11     0  08:00    0.000374     0.00643       0.118
  N75                  JUNCTION      0.31     7.64     0  08:00    0.000249     0.00607       0.177
  N76                  JUNCTION      0.47     7.33     0  08:00    0.000374     0.00582       0.094
  N77                  JUNCTION      0.16     6.86     0  08:00    0.000124     0.00546       0.148
  N78                  JUNCTION      1.25     3.90     0  08:00    0.000997     0.00311       0.068
  N79                  JUNCTION      0.16     1.25     0  08:00    0.000124    0.000992       0.153
  N8                   JUNCTION      0.00     0.00     0  00:00           0           0       0.000 gal
  N80                  JUNCTION      0.94     1.09     0  08:00    0.000748    0.000871       0.446
  N81                  JUNCTION      0.16     0.16     0  07:00    0.000124    0.000124       0.952
  N82                  JUNCTION      0.94     2.81     0  08:00    0.000748     0.00223       0.179
  N83                  JUNCTION      0.31     1.87     0  08:00    0.000249     0.00149       0.270
  N84                  JUNCTION      0.16     1.56     0  08:00    0.000124     0.00124       0.105
  N85                  JUNCTION      0.31     1.40     0  08:00    0.000249     0.00112       0.113
  N86                  JUNCTION      0.31     1.09     0  08:00    0.000249     0.00087       0.275
  N87                  JUNCTION      0.62     0.78     0  08:00    0.000499    0.000623       0.333
  N88                  JUNCTION      0.16     0.16     0  07:00    0.000124    0.000124       0.436
  N89                  JUNCTION      1.40     1.40     0  07:00     0.00112     0.00112       0.172
  N9                   JUNCTION      0.47    43.40     0  08:10    0.000374      0.0203       0.192
  N90                  JUNCTION      0.00     0.00     0  00:00           0           0       0.000 gal
  N91                  JUNCTION      1.56    12.00     0  08:00     0.00125     0.00938       0.366
  N92                  JUNCTION      1.09    10.44     0  08:00    0.000873     0.00831       2.230
  N93                  JUNCTION      1.40     5.92     0  08:00     0.00112     0.00472       0.379
  N94                  JUNCTION      1.56     2.81     0  08:00     0.00125     0.00224       0.458
  N95                  JUNCTION      1.25     3.43     0  07:48    0.000997     0.00274       0.136
  N96                  JUNCTION      0.31     1.25     0  08:00    0.000249    0.000995       0.149
  N97                  JUNCTION      0.94     1.71     0  07:58    0.000748     0.00137       0.264
  N98                  JUNCTION      0.00     0.00     0  00:00           0           0       0.000 gal
  N99                  JUNCTION      0.78     0.78     0  07:00    0.000623    0.000623       0.131
  OUTFALL              OUTFALL       0.00   301.54     0  08:34           0      0.0562       0.000
  LS1                  STORAGE       0.00    28.52     0  08:00           0      0.0223       0.598
  LS2                  STORAGE       0.00    11.69     0  08:00           0     0.00929       3.362
  LS3                  STORAGE       0.00     8.88     0  08:00           0     0.00704       3.781
  LS4                  STORAGE       0.00    89.50     0  07:55           0      0.0584       0.687
  
  
  **********************
  Node Surcharge Summary
  **********************
  
  Surcharging occurs when water rises above the top of the highest conduit.
  ---------------------------------------------------------------------
                                               Max. Height   Min. Depth
                                   Hours       Above Crown    Below Rim
  Node                 Type      Surcharged           Feet         Feet
  ---------------------------------------------------------------------
  N120                 JUNCTION       18.26        166.228        0.000
  N121                 JUNCTION       17.91         89.260        0.000
  N122                 JUNCTION       17.17        168.314        0.000
  
  
  *********************
  Node Flooding Summary
  *********************
  
  No nodes were flooded.
  
  
  **********************
  Storage Volume Summary
  **********************
  
  ------------------------------------------------------------------------------------------------
                         Average    Avg   Evap  Exfil     Maximum    Max    Time of Max    Maximum
                          Volume   Pcnt   Pcnt   Pcnt      Volume   Pcnt     Occurrence    Outflow
  Storage Unit          1000 ftł   Full   Loss   Loss    1000 ftł   Full    days hr:min        GPM
  ------------------------------------------------------------------------------------------------
  LS1                      0.000    0.0    0.0    0.0       0.000    0.0       0  00:00     142.00
  LS2                      0.000    0.0    0.0    0.0       0.000    0.0       0  00:00     142.00
  LS3                      0.000    0.0    0.0    0.0       0.000    0.0       0  00:00     142.00
  LS4                      0.000    0.0    0.0    0.0       0.000    0.0       0  00:00     301.00
  
  
  ***********************
  Outfall Loading Summary
  ***********************
  
  -----------------------------------------------------------
                         Flow       Avg       Max       Total
                         Freq      Flow      Flow      Volume
  Outfall Node           Pcnt       GPM       GPM    10^6 gal
  -----------------------------------------------------------
  OUTFALL               50.24     78.44    301.54       0.056
  -----------------------------------------------------------
  System                50.24     78.44    301.54       0.056
  
  
  ********************
  Link Flow Summary
  ********************
  
  -----------------------------------------------------------------------------
                                 Maximum  Time of Max   Maximum    Max/    Max/
                                  |Flow|   Occurrence   |Veloc|    Full    Full
  Link                 Type          GPM  days hr:min    ft/sec    Flow   Depth
  -----------------------------------------------------------------------------
  C1                   CONDUIT      0.00     0  00:00      0.00    0.00    0.00
  C10                  CONDUIT     38.26     0  07:55      1.33    0.05    0.18
  C100                 CONDUIT      0.78     0  07:58      0.77    0.00    0.02
  C101                 CONDUIT      0.00     0  00:00      0.00    0.00    0.00
  C102                 CONDUIT      0.94     0  08:00      0.88    0.00    0.03
  C103                 CONDUIT      4.37     0  07:59      1.03    0.01    0.06
  C104                 CONDUIT      3.90     0  07:59      0.94    0.01    0.06
  C105                 CONDUIT      0.00     0  00:00      0.00    0.00    0.00
  C106                 CONDUIT      0.62     0  07:59      0.69    0.00    0.02
  C107                 CONDUIT      0.00     0  00:00      0.00    0.00    0.00
  C108                 CONDUIT      0.00     0  00:00      0.00    0.00    0.00
  C109                 CONDUIT      0.00     0  00:00      0.00    0.00    0.06
  C11                  CONDUIT     52.62     0  07:47      4.00    0.02    0.10
  C110                 CONDUIT      0.00     0  00:00      0.00    0.00    0.00
  C111                 CONDUIT      0.00     0  00:00      0.00    0.00    0.00
  C112                 CONDUIT     12.00     0  08:00      1.44    0.02    0.10
  C113                 CONDUIT     12.00     0  08:00      1.21    0.03    0.11
  C114                 CONDUIT     16.37     0  08:00      2.82    0.01    0.08
  C115                 CONDUIT      0.00     0  00:00      0.00    0.00    0.00
  C116                 CONDUIT      0.00     0  00:00      0.00    0.00    0.00
  C117                 CONDUIT      8.88     0  08:00      1.24    0.02    0.09
  C118                 CONDUIT     11.69     0  08:00      1.92    0.01    0.08
  C119                 CONDUIT     28.52     0  08:00      1.78    0.05    0.16
  C12                  CONDUIT     53.06     0  07:46      1.89    0.06    0.17
  C120                 CONDUIT    140.00     0  07:45      4.90    0.71    0.72
  C121                 CONDUIT    149.90     0  06:45      4.41    0.71    0.81
  C122                 CONDUIT    152.83     0  07:27      4.45    0.73    0.82
  C123                 CONDUIT    301.04     0  08:20     11.03    0.26    0.36
  C124                 CONDUIT    301.54     0  08:34     10.43    0.28    0.36
  C13                  CONDUIT      2.49     0  08:00      1.30    0.00    0.03
  C14                  CONDUIT      2.03     0  08:00      0.79    0.00    0.03
  C15                  CONDUIT      1.56     0  08:00      0.77    0.00    0.03
  C16                  CONDUIT      1.09     0  08:00      0.75    0.00    0.02
  C17                  CONDUIT     56.26     0  07:45      2.15    0.11    0.22
  C18                  CONDUIT     11.07     0  08:00      1.32    0.02    0.10
  C19                  CONDUIT      3.59     0  08:00      0.97    0.01    0.06
  C2                   CONDUIT     48.64     0  08:48      1.80    0.06    0.17
  C20                  CONDUIT      1.40     0  08:00      0.54    0.00    0.05
  C21                  CONDUIT      6.08     0  08:00      0.78    0.02    0.10
  C22                  CONDUIT      4.99     0  08:00      0.94    0.01    0.07
  C23                  CONDUIT      2.65     0  08:00      0.88    0.01    0.05
  C24                  CONDUIT      0.00     0  00:00      0.00    0.00    0.00
  C25                  CONDUIT      1.40     0  08:00      0.74    0.00    0.04
  C26                  CONDUIT      0.00     0  00:00      0.00    0.00    0.00
  C27                  CONDUIT      0.00     0  00:00      0.00    0.00    0.00
  C28                  CONDUIT      1.40     0  08:00      0.63    0.00    0.04
  C29                  CONDUIT      2.03     0  08:00      0.82    0.00    0.04
  C3                   CONDUIT     77.62     0  08:45      2.10    0.10    0.21
  C30                  CONDUIT      0.00     0  00:00      0.00    0.00    0.00
  C31                  CONDUIT      3.12     0  08:00      0.93    0.01    0.05
  C32                  CONDUIT      3.27     0  08:00      1.88    0.00    0.04
  C33                  CONDUIT      4.05     0  08:00      1.09    0.00    0.06
  C34                  CONDUIT     16.37     0  08:00      2.39    0.02    0.09
  C35                  CONDUIT     17.61     0  08:00      2.36    0.02    0.09
  C36                  CONDUIT     18.24     0  08:00      1.53    0.04    0.13
  C37                  CONDUIT     18.86     0  08:00      1.55    0.04    0.13
  C38                  CONDUIT     19.80     0  08:00      1.60    0.04    0.13
  C39                  CONDUIT      7.64     0  08:00      2.44    0.01    0.05
  C4                   CONDUIT    184.76     0  09:26      2.63    0.24    0.33
  C40                  CONDUIT      6.70     0  08:00      1.91    0.01    0.06
  C41                  CONDUIT      5.77     0  08:00      2.37    0.00    0.04
  C42                  CONDUIT      5.30     0  08:00      1.17    0.01    0.07
  C43                  CONDUIT      3.90     0  08:00      0.99    0.01    0.06
  C44                  CONDUIT      0.94     0  08:00      0.73    0.00    0.03
  C45                  CONDUIT      0.00     0  00:00      0.00    0.00    0.00
  C46                  CONDUIT      2.18     0  08:00      0.96    0.00    0.04
  C47                  CONDUIT      0.00     0  00:00      0.00    0.00    0.00
  C48                  CONDUIT      0.00     0  00:00      0.00    0.00    0.00
  C49                  CONDUIT      0.00     0  00:00      0.00    0.00    0.00
  C5                   CONDUIT      2.65     0  08:00      1.02    0.00    0.08
  C50                  CONDUIT      0.00     0  00:00      0.00    0.00    0.00
  C51                  CONDUIT      1.40     0  08:00      0.74    0.00    0.04
  C52                  CONDUIT      3.12     0  08:00      1.88    0.00    0.03
  C53                  CONDUIT      5.14     0  08:00      1.74    0.00    0.05
  C54                  CONDUIT      0.00     0  00:00      0.00    0.00    0.00
  C55                  CONDUIT      0.00     0  00:00      0.00    0.00    0.00
  C56                  CONDUIT      0.00     0  00:00      0.00    0.00    0.00
  C57                  CONDUIT      4.52     0  08:00      1.50    0.00    0.05
  C58                  CONDUIT      4.83     0  08:00      1.55    0.01    0.05
  C59                  CONDUIT     11.22     0  08:00      1.95    0.01    0.08
  C6                   CONDUIT      0.00     0  00:00      0.00    0.00    0.00
  C60                  CONDUIT      3.90     0  08:00      1.93    0.00    0.04
  C61                  CONDUIT      2.34     0  08:00      1.50    0.00    0.03
  C62                  CONDUIT      0.78     0  07:49      1.02    0.00    0.02
  C63                  CONDUIT      0.00     0  00:00      0.00    0.00    0.00
  C64                  CONDUIT      0.62     0  08:00      0.84    0.00    0.02
  C65                  CONDUIT      0.00     0  00:00      0.00    0.00    0.00
  C66                  CONDUIT      0.00     0  00:00      0.00    0.00    0.00
  C67                  CONDUIT      8.73     0  08:00      2.05    0.01    0.06
  C68                  CONDUIT      0.62     0  07:59      1.10    0.00    0.02
  C69                  CONDUIT      0.00     0  00:00      0.00    0.00    0.00
  C7                   CONDUIT      1.71     0  08:00      0.76    0.00    0.04
  C70                  CONDUIT      8.11     0  08:00      1.72    0.01    0.07
  C71                  CONDUIT      7.64     0  08:00      2.31    0.01    0.05
  C72                  CONDUIT      7.33     0  08:00      2.23    0.01    0.05
  C73                  CONDUIT      1.09     0  08:00      0.81    0.00    0.03
  C74                  CONDUIT      1.25     0  08:00      1.31    0.00    0.02
  C75                  CONDUIT      3.90     0  08:00      1.96    0.00    0.04
  C76                  CONDUIT      6.86     0  08:00      2.06    0.01    0.05
  C77                  CONDUIT      0.16     0  08:00      0.00    0.00    0.01
  C78                  CONDUIT      0.16     0  08:00      0.00    0.00    0.01
  C79                  CONDUIT      0.78     0  08:00      0.72    0.00    0.03
  C8                   CONDUIT     42.97     0  08:10      1.74    0.05    0.16
  C80                  CONDUIT      1.09     0  08:00      0.74    0.00    0.03
  C81                  CONDUIT      1.40     0  08:00      1.35    0.00    0.02
  C82                  CONDUIT      1.56     0  08:00      1.43    0.00    0.03
  C83                  CONDUIT      1.87     0  08:00      0.95    0.00    0.04
  C84                  CONDUIT      2.81     0  08:00      1.40    0.00    0.04
  C85                  CONDUIT      1.40     0  07:18      0.70    0.00    0.04
  C86                  CONDUIT     89.50     0  07:55      2.19    0.11    0.22
  C87                  CONDUIT      0.00     0  00:00      0.00    0.00    0.00
  C88                  CONDUIT     10.44     0  08:00      1.22    0.02    0.10
  C89                  CONDUIT      3.43     0  07:49      1.88    0.00    0.04
  C9                   CONDUIT     38.49     0  08:13      1.68    0.05    0.15
  C90                  CONDUIT      1.71     0  08:00      1.32    0.00    0.03
  C91                  CONDUIT      5.92     0  08:00      0.93    0.02    0.08
  C92                  CONDUIT      2.81     0  08:00      0.77    0.01    0.06
  C93                  CONDUIT      0.00     0  00:00      0.00    0.00    0.00
  C94                  CONDUIT      1.25     0  08:00      1.41    0.00    0.02
  C95                  CONDUIT      0.00     0  00:00      0.00    0.00    0.00
  C96                  CONDUIT      0.78     0  07:43      1.14    0.00    0.02
  C97                  CONDUIT      0.00     0  00:00      0.00    0.00    0.00
  C98                  CONDUIT      1.40     0  07:48      1.45    0.00    0.02
  C99                  CONDUIT      0.00     0  00:00      0.00    0.00    0.00
  LS1_PUMP1            PUMP       142.00     0  05:01              1.00
  LS1_PUMP2            PUMP         0.00     0  00:00              0.00
  LS2_PUMP1            PUMP       142.00     0  05:15              1.00
  LS2_PUMP2            PUMP         0.00     0  00:00              0.00
  LS3_PUMP1            PUMP       142.00     0  05:18              1.00
  LS3_PUMP2            PUMP         0.00     0  00:00              0.00
  LS4_PUMP1            PUMP       301.00     0  04:54              1.00
  LS4_PUMP2            PUMP         0.00     0  00:00              0.00
  
  
  ***************************
  Flow Classification Summary
  ***************************
  
  -------------------------------------------------------------------------------------
                      Adjusted    ---------- Fraction of Time in Flow Class ---------- 
                       /Actual         Up    Down  Sub   Sup   Up    Down  Norm  Inlet 
  Conduit               Length    Dry  Dry   Dry   Crit  Crit  Crit  Crit  Ltd   Ctrl  
  -------------------------------------------------------------------------------------
  C1                      1.00   1.00  0.00  0.00  0.00  0.00  0.00  0.00  0.00  0.00
  C10                     1.00   0.00  0.00  0.00  1.00  0.00  0.00  0.00  1.00  0.00
  C100                    1.00   0.00  0.00  0.00  0.17  0.83  0.00  0.00  1.00  0.00
  C101                    1.00   1.00  0.00  0.00  0.00  0.00  0.00  0.00  0.00  0.00
  C102                    1.00   0.00  0.00  0.00  0.00  0.00  0.00  1.00  0.00  0.00
  C103                    1.00   0.00  0.00  0.00  0.00  0.00  0.00  1.00  0.00  0.00
  C104                    1.00   0.00  0.00  0.00  0.00  0.00  0.00  1.00  0.00  0.00
  C105                    1.00   1.00  0.00  0.00  0.00  0.00  0.00  0.00  0.00  0.00
  C106                    1.00   0.00  0.00  0.00  0.00  0.00  0.00  1.00  0.00  0.00
  C107                    1.00   1.00  0.00  0.00  0.00  0.00  0.00  0.00  0.00  0.00
  C108                    1.00   1.00  0.00  0.00  0.00  0.00  0.00  0.00  0.00  0.00
  C109                    1.00   0.00  1.00  0.00  0.00  0.00  0.00  0.00  0.00  0.00
  C11                     1.00   0.00  0.00  0.00  0.00  0.00  0.00  1.00  0.00  0.00
  C110                    1.00   1.00  0.00  0.00  0.00  0.00  0.00  0.00  0.00  0.00
  C111                    1.00   1.00  0.00  0.00  0.00  0.00  0.00  0.00  0.00  0.00
  C112                    1.00   0.00  0.00  0.00  0.00  0.00  0.00  1.00  0.00  0.00
  C113                    1.00   0.00  0.00  0.00  0.00  0.00  0.00  1.00  0.00  0.00
  C114                    1.00   0.00  0.00  0.00  0.00  0.00  0.00  1.00  0.00  0.00
  C115                    1.00   1.00  0.00  0.00  0.00  0.00  0.00  0.00  0.00  0.00
  C116                    1.00   1.00  0.00  0.00  0.00  0.00  0.00  0.00  0.00  0.00
  C117                    1.00   0.00  0.00  0.00  0.00  0.00  0.00  1.00  0.00  0.00
  C118                    1.05   0.00  0.00  0.00  0.00  0.00  0.00  1.00  0.00  0.00
  C119                    1.00   0.00  0.00  0.00  0.00  0.00  0.00  1.00  0.00  0.00
  C12                     1.00   0.00  0.00  0.00  0.00  0.00  0.00  1.00  0.00  0.00
  C120                    1.00   0.00  0.00  0.00  0.89  0.11  0.00  0.00  0.66  0.00
  C121                    1.00   0.22  0.74  0.00  0.00  0.00  0.04  0.00  0.00  0.00
  C122                    1.00   0.22  0.75  0.00  0.00  0.00  0.03  0.00  0.00  0.00
  C123                    2.12   0.20  0.00  0.00  0.00  0.00  0.00  0.80  0.00  0.00
  C124                    3.11   0.20  0.00  0.00  0.04  0.76  0.00  0.00  0.10  0.00
  C13                     1.00   0.00  0.00  0.00  0.00  0.00  0.00  1.00  0.00  0.00
  C14                     1.00   0.00  0.00  0.00  0.00  0.00  0.00  1.00  0.00  0.00
  C15                     1.00   0.00  0.00  0.00  0.00  0.00  0.00  1.00  0.00  0.00
  C16                     1.00   0.00  0.00  0.00  0.00  0.00  0.00  1.00  0.00  0.00
  C17                     1.00   0.00  0.00  0.00  0.00  0.00  0.00  1.00  0.00  0.00
  C18                     1.00   0.00  0.00  0.00  0.00  0.00  0.00  1.00  0.00  0.00
  C19                     1.00   0.00  0.00  0.00  0.00  0.00  0.00  1.00  0.00  0.00
  C2                      1.00   0.02  0.00  0.00  0.00  0.00  0.00  0.98  0.00  0.00
  C20                     1.00   0.00  0.00  0.00  0.00  0.00  0.00  1.00  0.00  0.00
  C21                     1.00   0.00  0.00  0.00  0.00  0.00  0.00  1.00  0.00  0.00
  C22                     1.00   0.00  0.00  0.00  0.00  0.00  0.00  1.00  0.00  0.00
  C23                     1.00   0.00  0.00  0.00  0.00  0.00  0.00  1.00  0.00  0.00
  C24                     1.00   1.00  0.00  0.00  0.00  0.00  0.00  0.00  0.00  0.00
  C25                     1.00   0.00  0.00  0.00  0.00  0.00  0.00  1.00  0.00  0.00
  C26                     1.00   1.00  0.00  0.00  0.00  0.00  0.00  0.00  0.00  0.00
  C27                     1.00   1.00  0.00  0.00  0.00  0.00  0.00  0.00  0.00  0.00
  C28                     1.00   0.00  0.00  0.00  0.82  0.01  0.00  0.17  0.82  0.00
  C29                     1.00   0.17  0.00  0.00  0.00  0.00  0.00  0.83  0.00  0.00
  C3                      1.00   0.00  0.00  0.00  0.00  0.00  0.00  1.00  0.00  0.00
  C30                     1.00   1.00  0.00  0.00  0.00  0.00  0.00  0.00  0.00  0.00
  C31                     1.00   0.00  0.00  0.00  0.00  0.00  0.00  1.00  0.00  0.00
  C32                     1.00   0.00  0.00  0.00  0.00  0.00  0.00  1.00  0.00  0.00
  C33                     1.00   0.00  0.00  0.00  0.09  0.91  0.00  0.00  1.00  0.00
  C34                     1.00   0.01  0.00  0.00  0.00  0.00  0.00  0.99  0.00  0.00
  C35                     1.00   0.00  0.00  0.00  0.00  0.00  0.00  1.00  0.00  0.00
  C36                     1.00   0.00  0.00  0.00  0.00  0.00  0.00  1.00  0.00  0.00
  C37                     1.00   0.00  0.00  0.00  0.00  0.00  0.00  1.00  0.00  0.00
  C38                     1.00   0.00  0.00  0.00  0.00  0.00  0.00  1.00  0.00  0.00
  C39                     1.00   0.00  0.00  0.00  0.00  0.00  0.00  1.00  0.00  0.00
  C4                      1.00   0.00  0.00  0.00  0.00  0.00  0.00  1.00  0.00  0.00
  C40                     1.00   0.00  0.00  0.00  0.00  0.00  0.00  1.00  0.00  0.00
  C41                     1.00   0.00  0.00  0.00  0.00  0.00  0.00  1.00  0.00  0.00
  C42                     1.00   0.00  0.00  0.00  0.00  0.00  0.00  1.00  0.00  0.00
  C43                     1.00   0.00  0.00  0.00  0.00  0.00  0.00  1.00  0.00  0.00
  C44                     1.00   0.00  0.00  0.00  0.00  0.00  0.00  1.00  0.00  0.00
  C45                     1.00   1.00  0.00  0.00  0.00  0.00  0.00  0.00  0.00  0.00
  C46                     1.00   0.00  0.00  0.00  0.00  0.00  0.00  1.00  0.00  0.00
  C47                     1.00   1.00  0.00  0.00  0.00  0.00  0.00  0.00  0.00  0.00
  C48                     1.00   1.00  0.00  0.00  0.00  0.00  0.00  0.00  0.00  0.00
  C49                     1.00   1.00  0.00  0.00  0.00  0.00  0.00  0.00  0.00  0.00
  C5                      1.00   0.00  0.00  0.00  0.01  0.00  0.00  0.99  0.01  0.00
  C50                     1.00   1.00  0.00  0.00  0.00  0.00  0.00  0.00  0.00  0.00
  C51                     1.00   0.00  0.00  0.00  0.00  0.00  0.00  1.00  0.00  0.00
  C52                     1.00   0.00  0.00  0.00  0.00  0.00  0.00  1.00  0.00  0.00
  C53                     1.00   0.00  0.00  0.00  0.00  0.00  0.00  1.00  0.00  0.00
  C54                     1.00   1.00  0.00  0.00  0.00  0.00  0.00  0.00  0.00  0.00
  C55                     1.00   1.00  0.00  0.00  0.00  0.00  0.00  0.00  0.00  0.00
  C56                     1.00   1.00  0.00  0.00  0.00  0.00  0.00  0.00  0.00  0.00
  C57                     1.00   0.00  0.00  0.00  0.00  0.00  0.00  1.00  0.00  0.00
  C58                     1.00   0.00  0.00  0.00  0.00  0.00  0.00  1.00  0.00  0.00
  C59                     1.00   0.00  0.00  0.00  0.00  0.00  0.00  1.00  0.00  0.00
  C6                      1.00   1.00  0.00  0.00  0.00  0.00  0.00  0.00  0.00  0.00
  C60                     1.00   0.00  0.00  0.00  0.00  0.00  0.00  1.00  0.00  0.00
  C61                     1.00   0.00  0.00  0.00  0.00  0.00  0.00  1.00  0.00  0.00
  C62                     1.00   0.00  0.00  0.00  0.00  0.00  0.00  1.00  0.00  0.00
  C63                     1.00   1.00  0.00  0.00  0.00  0.00  0.00  0.00  0.00  0.00
  C64                     1.00   0.00  0.00  0.00  0.00  0.00  0.00  1.00  0.00  0.00
  C65                     1.00   1.00  0.00  0.00  0.00  0.00  0.00  0.00  0.00  0.00
  C66                     1.00   1.00  0.00  0.00  0.00  0.00  0.00  0.00  0.00  0.00
  C67                     1.00   0.01  0.00  0.00  0.00  0.00  0.00  0.99  0.00  0.00
  C68                     1.00   0.00  0.00  0.00  0.00  0.00  0.00  1.00  0.00  0.00
  C69                     1.00   1.00  0.00  0.00  0.00  0.00  0.00  0.00  0.00  0.00
  C7                      1.00   0.00  0.00  0.00  0.00  0.00  0.00  1.00  0.00  0.00
  C70                     1.00   0.00  0.00  0.00  0.00  0.00  0.00  1.00  0.00  0.00
  C71                     1.00   0.00  0.00  0.00  0.00  0.00  0.00  1.00  0.00  0.00
  C72                     1.00   0.00  0.00  0.00  0.00  0.00  0.00  1.00  0.00  0.00
  C73                     1.00   0.00  0.00  0.00  0.00  0.00  0.00  1.00  0.00  0.00
  C74                     1.00   0.00  0.00  0.00  0.00  0.00  0.00  1.00  0.00  0.00
  C75                     1.00   0.00  0.00  0.00  0.00  0.00  0.00  1.00  0.00  0.00
  C76                     1.00   0.00  0.00  0.00  0.00  0.00  0.00  1.00  0.00  0.00
  C77                     1.00   0.00  0.00  0.00  0.00  0.00  0.00  1.00  0.00  0.00
  C78                     1.00   0.00  0.00  0.00  0.00  0.00  0.00  1.00  0.00  0.00
  C79                     1.00   0.00  0.00  0.00  0.00  0.00  0.00  1.00  0.00  0.00
  C8                      1.00   0.00  0.00  0.00  0.00  0.00  0.00  1.00  0.00  0.00
  C80                     1.00   0.00  0.00  0.00  0.00  0.00  0.00  1.00  0.00  0.00
  C81                     1.00   0.00  0.00  0.00  0.00  0.00  0.00  1.00  0.00  0.00
  C82                     1.00   0.00  0.00  0.00  0.00  0.00  0.00  1.00  0.00  0.00
  C83                     1.00   0.00  0.00  0.00  0.00  0.00  0.00  1.00  0.00  0.00
  C84                     1.00   0.00  0.00  0.00  0.00  0.00  0.00  1.00  0.00  0.00
  C85                     1.00   0.00  0.00  0.00  0.00  0.00  0.00  1.00  0.00  0.00
  C86                     1.00   0.00  0.00  0.00  0.00  0.00  0.00  1.00  0.00  0.00
  C87                     1.00   1.00  0.00  0.00  0.00  0.00  0.00  0.00  0.00  0.00
  C88                     1.00   0.19  0.00  0.00  0.00  0.00  0.00  0.81  0.00  0.00
  C89                     1.00   0.00  0.00  0.00  0.00  0.00  0.00  1.00  0.00  0.00
  C9                      1.00   0.00  0.00  0.00  0.00  0.00  0.00  1.00  0.00  0.00
  C90                     1.00   0.00  0.00  0.00  0.00  0.00  0.00  1.00  0.00  0.00
  C91                     1.00   0.00  0.00  0.00  0.00  0.00  0.00  1.00  0.00  0.00
  C92                     1.00   0.00  0.00  0.00  0.00  0.00  0.00  1.00  0.00  0.00
  C93                     1.00   1.00  0.00  0.00  0.00  0.00  0.00  0.00  0.00  0.00
  C94                     1.00   0.00  0.00  0.00  0.00  0.00  0.00  1.00  0.00  0.00
  C95                     1.00   1.00  0.00  0.00  0.00  0.00  0.00  0.00  0.00  0.00
  C96                     1.00   0.00  0.00  0.00  0.00  0.00  0.00  1.00  0.00  0.00
  C97                     1.00   1.00  0.00  0.00  0.00  0.00  0.00  0.00  0.00  0.00
  C98                     1.00   0.00  0.00  0.00  0.00  0.00  0.00  1.00  0.00  0.00
  C99                     1.00   1.00  0.00  0.00  0.00  0.00  0.00  0.00  0.00  0.00
  
  
  *************************
  Conduit Surcharge Summary
  *************************
  
  ----------------------------------------------------------------------------
                                                           Hours        Hours 
                         --------- Hours Full --------   Above Full   Capacity
  Conduit                Both Ends  Upstream  Dnstream   Normal Flow   Limited
  ----------------------------------------------------------------------------
  C120                        0.01      0.01     18.26      0.01         0.01
  C121                        0.01      0.01     17.91      0.01         0.01
  C122                        0.01      0.01     17.17      0.01         0.01
  
  
  ***************
  Pumping Summary
  ***************
  
  ---------------------------------------------------------------------------------------------------------
                                                  Min       Avg       Max     Total     Power    % Time Off
                        Percent   Number of      Flow      Flow      Flow    Volume     Usage    Pump Curve
  Pump                 Utilized   Start-Ups       GPM       GPM       GPM  10^6 gal     Kw-hr    Low   High
  ---------------------------------------------------------------------------------------------------------
  LS1_PUMP1               11.53         193      0.00    133.43    142.00     0.022      8.17    0.0    3.5
  LS1_PUMP2                0.00           0      0.00      0.00      0.00     0.000      0.00    0.0    0.0
  LS2_PUMP1                4.45          43      0.00    140.17    142.00     0.009      2.25    0.0    6.5
  LS2_PUMP2                0.00           0      0.00      0.00      0.00     0.000      0.00    0.0    0.0
  LS3_PUMP1                3.36          42      0.00    140.30    142.00     0.007      1.92    0.0   10.2
  LS3_PUMP2                0.00           0      0.00      0.00      0.00     0.000      0.00    0.0    0.0
  LS4_PUMP1               13.41         181      0.00    300.92    301.00     0.058      1.91    0.0   31.9
  LS4_PUMP2                0.00           0      0.00      0.00      0.00     0.000      0.00    0.0    0.0
  

  Analysis begun on:  Tue Jun 23 21:00:07 2026
  Analysis ended on:  Tue Jun 23 21:00:09 2026
  Total elapsed time: 00:00:02