
  EPA STORM WATER MANAGEMENT MODEL - VERSION 5.2 (Build 5.2.4)
  ------------------------------------------------------------

  
  ERROR 207: duplicate ID name 125 at line 18 of [SUBCATCHMENT] section:
  125 Binney_W 1 934093 1.662754 71.000000 72.755760 0.721643 0.000000

  
  ERROR 207: duplicate ID name Area at line 174 of [SUBCATCHMENT] section:
  Area 13-3274 1 3274 4.780357 28.000000 430.011840 4.000000 0.000000

  
  ERROR 207: duplicate ID name Area at line 175 of [SUBCATCHMENT] section:
  Area 13-3317 1 3317 4.511139 36.000000 333.999840 4.300000 0.000000

  
  ERROR 207: duplicate ID name Area at line 176 of [SUBCATCHMENT] section:
  Area 13-3675 1 3675 2.954614 28.571429 321.990720 9.000000 0.000000

  
  ERROR 207: duplicate ID name PDMH at line 508 of [SUBCATCHMENT] section:
  PDMH no.13 1 PDMH no.13 0.439979 30.882353 45.384720 0.107498 0.000000

  
  ERROR 207: duplicate ID name PDMH at line 509 of [SUBCATCHMENT] section:
  PDMH No.14 1 PDMH No.14 0.432043 30.882353 44.958000 0.000000 0.000000

  
  ERROR 207: duplicate ID name PSMH at line 512 of [SUBCATCHMENT] section:
  PSMH No.6 1 PSMH No.6 0.141640 90.000000 21.244560 1.219744 0.000000

  
  ERROR 207: duplicate ID name PSMH at line 513 of [SUBCATCHMENT] section:
  PSMH No.7 1 PSMH No.7 0.218531 30.880000 26.365200 3.000000 0.000000

  
  ERROR 207: duplicate ID name TEMP at line 567 of [SUBCATCHMENT] section:
  TEMP D22C5760 1 D22C5760 0.885669 26.530612 53.644800 0.892165 0.000000

  
  ERROR 207: duplicate ID name TEMP at line 568 of [SUBCATCHMENT] section:
  TEMP D22D5915 1 D22D5915 0.736529 21.000000 48.432720 0.671415 0.000000

  
  ERROR 207: duplicate ID name TEMP at line 569 of [SUBCATCHMENT] section:
  TEMP D22D5920 1 D22D5920 1.388074 21.000000 66.476880 1.534447 0.000000

  
  ERROR 207: duplicate ID name TEMP at line 570 of [SUBCATCHMENT] section:
  TEMP S37C6440 1 S37C6440 0.826710 26.530612 51.816000 0.019023 0.000000

  
  ERROR 207: duplicate ID name Belmont at line 665 of [SUBCATCHMENT] section:
  Belmont 2 1 D33DMH1065 70.010724 50.000000 472.074240 3.000000 0.000000

  
  ERROR 207: duplicate ID name Belmont at line 666 of [SUBCATCHMENT] section:
  Belmont 3 1 D33DMH1045 22.802498 50.000000 269.412720 2.000000 0.000000

  
  ERROR 207: duplicate ID name Sparks at line 758 of [SUBCATCHMENT] section:
  Sparks St_South_Storm 1 D31DMH3735 32.771489 41.400000 322.966080 0.287420 0.000000

  
  ERROR 207: duplicate ID name South at line 3224 of [SUBCATCHMENT] section:
  South Main WDS3 1 S04SMH0405 0.016857 100.000000 124.968000 0.065115 0.000000

  
  ERROR 207: duplicate ID name South at line 3225 of [SUBCATCHMENT] section:
  South Main W2 1 SMH301 0.022460 100.000000 79.248000 0.055140 0.000000

  
  ERROR 207: duplicate ID name South at line 3226 of [SUBCATCHMENT] section:
  South Main WDS1 1 933194 0.897432 55.555556 64.008000 0.152869 0.000000

  
  ERROR 207: duplicate ID name South at line 3227 of [SUBCATCHMENT] section:
  South Main WDS2 1 S04SMH0320 0.047099 100.000000 97.536000 0.246753 0.000000

  
  ERROR 207: duplicate ID name Som at line 5205 of [SUBCATCHMENT] section:
  Som Ave_1.1 1 SOM Ave-SD4 0.330569 100.000000 324.307200 1.000000 0.000000

  
  ERROR 207: duplicate ID name Som at line 5206 of [SUBCATCHMENT] section:
  Som Ave_2 1 SOM Ave SD-8 0.894640 100.000000 533.704800 4.500000 0.000000

  
  ERROR 207: duplicate ID name Som at line 5235 of [SUBCATCHMENT] section:
  Som Ave_3 1 DMH_3 0.774578 100.000000 49.651920 1.350000 0.000000

  
  ERROR 207: duplicate ID name SUM at line 5346 of [SUBCATCHMENT] section:
  SUM ST SD3 1 AS-SD-2305 0.044212 100.000000 141.732000 14.000000 0.000000

  
  ERROR 207: duplicate ID name 125 at line 5425 of [SUBCATCHMENT] section:
  125 Binney! 1 ALSD-6 0.667799 99.940006 46.116240 0.474813 0.000000

  
  ERROR 207: duplicate ID name Binney at line 5428 of [SUBCATCHMENT] section:
  Binney St South 1 ALSD_5 0.426761 94.200000 36.850320 0.720213 0.000000

  
  ERROR 207: duplicate ID name Evolve at line 18011 of [JUNC] section:
  Evolve Dummy_2 0.904400 3.717789 0.000000 0.000000 0.000000

  
  ERROR 207: duplicate ID name Evolve at line 18012 of [JUNC] section:
  Evolve Storage Tank 0.914400 3.134359 0.000000 0.000000 5916.341697

  
  ERROR 207: duplicate ID name Hancock5_ss at line 18041 of [JUNC] section:
  Hancock5_ss weir 3.810000 2.218224 0.000000 0.000000 0.000000

  
  ERROR 207: duplicate ID name PDMH at line 18152 of [JUNC] section:
  PDMH No.12 5.733288 1.715804 0.000000 0.000000 0.000000

  
  ERROR 207: duplicate ID name PDMH at line 18153 of [JUNC] section:
  PDMH No.13 5.745480 1.712787 0.000000 0.000000 6470.274539

  
  ERROR 207: duplicate ID name PDMH at line 18154 of [JUNC] section:
  PDMH No.14 5.437632 2.253008 0.000000 0.000000 6353.574391

  
  ERROR 207: duplicate ID name PDMH at line 18155 of [JUNC] section:
  PDMH No.8 5.727192 2.464195 0.000000 0.000000 0.000000

  
  ERROR 207: duplicate ID name PSMH at line 18159 of [JUNC] section:
  PSMH No.3 4.276344 3.146868 0.000000 0.000000 0.000000

  
  ERROR 207: duplicate ID name PSMH at line 18160 of [JUNC] section:
  PSMH No.4 5.742432 2.108722 0.000000 0.000000 0.000000

  
  ERROR 207: duplicate ID name PSMH at line 18161 of [JUNC] section:
  PSMH No.5 6.038088 1.824277 0.000000 0.000000 0.000000

  
  ERROR 207: duplicate ID name PSMH at line 18162 of [JUNC] section:
  PSMH No.6 6.236208 1.913284 0.000000 0.000000 1416.401934

  
  ERROR 207: duplicate ID name PSMH at line 18163 of [JUNC] section:
  PSMH No.7 4.943856 2.788965 0.000000 0.000000 2185.305842

  
  ERROR 207: duplicate ID name ACCESS at line 18663 of [JUNC] section:
  ACCESS 104 8.869680 2.662934 0.000000 0.000000 0.000000

  
  ERROR 207: duplicate ID name 700 at line 18678 of [JUNC] section:
  700 Huron AveMH2 5.784803 2.910422 0.000000 0.000000 12081.675903

  
  ERROR 207: duplicate ID name DMH at line 19308 of [JUNC] section:
  DMH STA0+36 2.590800 3.505200 0.000000 0.000000 0.000000

  
  ERROR 207: duplicate ID name DMH at line 19309 of [JUNC] section:
  DMH STA0+93 1.371600 6.010656 0.000000 0.000000 8093.725339

  
  ERROR 207: duplicate ID name DMH at line 19310 of [JUNC] section:
  DMH STA12+24 3.931920 2.868168 0.000000 0.000000 40468.626697

  
  ERROR 207: duplicate ID name DMH at line 19311 of [JUNC] section:
  DMH STA16+19 3.992880 2.798064 0.000000 0.000000 40468.626697

  
  ERROR 207: duplicate ID name DMH at line 19312 of [JUNC] section:
  DMH STA2+21 0.914400 6.675120 0.000000 0.000000 8093.725339

  
  ERROR 207: duplicate ID name DMH at line 19313 of [JUNC] section:
  DMH STA2+59 2.133600 5.303520 0.000000 0.000000 8093.725339

  
  ERROR 207: duplicate ID name DMH at line 19314 of [JUNC] section:
  DMH STA23+67 4.139184 3.422904 0.000000 0.000000 40468.626697

  
  ERROR 207: duplicate ID name DMH at line 19315 of [JUNC] section:
  DMH STA3+71 2.636520 4.809744 0.000000 0.000000 8093.725339

  
  ERROR 207: duplicate ID name DMH at line 19316 of [JUNC] section:
  DMH STA3+85 3.169920 4.187952 0.000000 0.000000 8093.725339

  
  ERROR 207: duplicate ID name DMH at line 19317 of [JUNC] section:
  DMH STA4+08 3.657600 3.706368 0.000000 0.000000 8093.725339

  
  ERROR 207: duplicate ID name DMH at line 19318 of [JUNC] section:
  DMH STA7+99 3.867912 3.532632 0.000000 0.000000 40468.626697

  
  ERROR 207: duplicate ID name Field at line 19395 of [JUNC] section:
  Field DMH 31 6.891528 2.051304 0.000000 0.000000 0.000000

  
  ERROR 207: duplicate ID name Field at line 19396 of [JUNC] section:
  Field SMH15 6.623304 2.337816 0.000000 0.000000 0.000000

  
  ERROR 207: duplicate ID name Hazel at line 19399 of [JUNC] section:
  Hazel DMH50 4.934712 1.847088 0.000000 0.000000 0.000000

  
  ERROR 207: duplicate ID name Saville at line 19401 of [JUNC] section:
  Saville DMH59 6.577584 2.660904 0.000000 0.000000 0.000000

  
  ERROR 207: duplicate ID name Copley at line 19403 of [JUNC] section:
  Copley DMH76 6.687312 2.761488 0.000000 0.000000 0.000000

  
  ERROR 207: duplicate ID name Walden at line 19405 of [JUNC] section:
  Walden DMH35 8.613648 2.621280 0.000000 0.000000 0.000000

  
  ERROR 207: duplicate ID name Fayerweather at line 19407 of [JUNC] section:
  Fayerweather DMH62 6.385560 2.959608 0.000000 0.000000 0.000000

  
  ERROR 207: duplicate ID name SOM at line 27919 of [JUNC] section:
  SOM Ave SD-14 3.486912 4.097456 0.000000 0.000000 20234.313349

  
  ERROR 207: duplicate ID name SOM at line 27920 of [JUNC] section:
  SOM Ave SD-6 8.412480 3.139440 0.000000 0.000000 20234.313349

  
  ERROR 207: duplicate ID name SOM at line 27921 of [JUNC] section:
  SOM Ave SD-7 8.330184 3.093720 0.000000 0.000000 20234.313349

  
  ERROR 207: duplicate ID name SOM at line 27922 of [JUNC] section:
  SOM Ave SD-8 6.419088 3.520440 0.000000 0.000000 8946.401954

  
  ERROR 207: duplicate ID name SOM at line 27923 of [JUNC] section:
  SOM Ave SD-9 5.516880 3.800856 0.000000 0.000000 20234.313349

  
  ERROR 207: duplicate ID name SOM at line 27924 of [JUNC] section:
  SOM Ave SD11 4.431792 5.315712 0.000000 0.000000 0.000000

  
  ERROR 207: duplicate ID name SOM at line 27925 of [JUNC] section:
  SOM Ave SD12 3.776472 4.953000 0.000000 0.000000 2352.731207

  
  ERROR 207: duplicate ID name SOM at line 27926 of [JUNC] section:
  SOM Ave SD13 3.509772 4.661916 0.000000 0.000000 20234.313349

  
  ERROR 207: duplicate ID name SOM at line 27927 of [JUNC] section:
  SOM Ave SD14-Dummy 3.489655 4.364828 0.000000 0.000000 20234.313349

  
  ERROR 207: duplicate ID name SOM at line 27928 of [JUNC] section:
  SOM Ave-SD1 11.920728 1.447800 0.000000 0.000000 20234.313349

  
  ERROR 207: duplicate ID name SOM at line 27929 of [JUNC] section:
  SOM Ave-SD3 10.747248 3.291840 0.000000 0.000000 20234.313349

  
  ERROR 207: duplicate ID name SOM at line 27930 of [JUNC] section:
  SOM Ave-SD4 8.930640 2.572512 0.000000 0.000000 20234.313349

  
  ERROR 207: duplicate ID name SOM at line 27931 of [JUNC] section:
  SOM Ave-SD5 8.586216 2.965704 0.000000 0.000000 20234.313349

  
  ERROR 207: duplicate ID name SOM at line 27932 of [JUNC] section:
  SOM AveSD-2 11.231880 3.017520 0.000000 0.000000 20234.313349

  
  ERROR 207: duplicate ID name Oval at line 28139 of [JUNC] section:
  Oval Chamber 2 3.550615 4.113213 0.000000 0.000000 0.000000

  
  ERROR 207: duplicate ID name 933315 at line 28166 of [JUNC] section:
  933315 2 3.097274 3.352294 0.000000 0.000000 4046.862670

  
  ERROR 207: duplicate ID name PDMH at line 30764 of [CONDUIT] section:
  PDMH No.12.1 PDMH No.12 PDMH no.11 20.182318 0.014000 0.000000 0.000000 0.000000

  
  ERROR 207: duplicate ID name PDMH at line 30765 of [CONDUIT] section:
  PDMH No.13.1 PDMH No.13 PDMH No.12 8.534400 0.014000 0.000000 0.000000 0.000000

  
  ERROR 207: duplicate ID name PDMH at line 30766 of [CONDUIT] section:
  PDMH No.14.2 PDMH No.14 S37C4255 44.805600 0.017000 0.000000 0.000000 0.000000

  
  ERROR 207: duplicate ID name PDMH at line 30767 of [CONDUIT] section:
  PDMH No.8.1 PDMH No.8 2781 9.144000 0.014000 0.000000 -0.000000 0.000000

  
  ERROR 207: duplicate ID name PSMH at line 30771 of [CONDUIT] section:
  PSMH No.3.1 PSMH No.3 PSMH No.1 25.806914 0.017000 -0.000000 0.000000 0.000000

  
  ERROR 207: duplicate ID name PSMH at line 30772 of [CONDUIT] section:
  PSMH No.4.2 PSMH No.4 PSMH No.3 75.895200 0.010000 0.000000 0.713232 0.000000

  
  ERROR 207: duplicate ID name PSMH at line 30773 of [CONDUIT] section:
  PSMH No.5.1 PSMH No.5 PSMH No.4 3.048000 0.010000 0.000000 0.249936 0.000000

  
  ERROR 207: duplicate ID name PSMH at line 30774 of [CONDUIT] section:
  PSMH No.6.1 PSMH No.6 PSMH No.5 23.539975 0.017000 0.000000 0.015240 0.000000

  
  ERROR 207: duplicate ID name PSMH at line 30775 of [CONDUIT] section:
  PSMH No.7.1 PSMH No.7 S11SMH6810 45.406331 0.017000 0.000000 0.000000 0.000000

  
  ERROR 207: duplicate ID name ACCESS at line 31499 of [CONDUIT] section:
  ACCESS 104.1 ACCESS 104 D33DMH1090 33.008314 0.015000 0.000000 0.000000 0.000000

  
  ERROR 207: duplicate ID name 700 at line 31515 of [CONDUIT] section:
  700 Huron AveMH2.1 700 Huron AveMH2 D33DMH1065 47.449642 0.015000 0.000000 0.000000 0.000000

  
  ERROR 207: duplicate ID name DMH at line 32270 of [CONDUIT] section:
  DMH STA0+36.1 DMH STA0+36 Western_Outfall 8.391115 0.013000 0.000000 0.000000 0.000000

  
  ERROR 207: duplicate ID name DMH at line 32271 of [CONDUIT] section:
  DMH STA0+93.1 DMH STA0+93 DMH STA0+36 16.745677 0.013000 1.219200 0.000000 0.000000

  
  ERROR 207: duplicate ID name DMH at line 32272 of [CONDUIT] section:
  DMH STA12+24.1 DMH STA12+24 DMH STA7+99 130.524204 0.013000 0.000000 0.000000 0.000000

  
  ERROR 207: duplicate ID name DMH at line 32273 of [CONDUIT] section:
  DMH STA16+19.2 DMH STA16+19 DMH STA12+24 120.298038 0.013000 0.000000 0.000000 0.000000

  
  ERROR 207: duplicate ID name DMH at line 32274 of [CONDUIT] section:
  DMH STA2+21.1 DMH STA2+21 DMH-STA1+96 6.668088 0.013000 1.219200 0.121920 0.000000

  
  ERROR 207: duplicate ID name DMH at line 32275 of [CONDUIT] section:
  DMH STA2+59.1 DMH STA2+59 DMH STA2+21 12.426694 0.011000 0.000000 1.219200 0.000000

  
  ERROR 207: duplicate ID name DMH at line 32276 of [CONDUIT] section:
  DMH STA2+59.2 DMH STA2+59 DMH STA2+21 12.426694 0.011000 0.000000 1.219200 0.000000

  
  ERROR 207: duplicate ID name DMH at line 32277 of [CONDUIT] section:
  DMH STA23+67.1 DMH STA23+67 new_dmh6 73.032071 0.013000 0.000000 0.000000 0.000000

  
  ERROR 207: duplicate ID name DMH at line 32278 of [CONDUIT] section:
  DMH STA3+71.1 DMH STA3+71 DMH STA2+59 32.507620 0.011000 0.000000 0.000000 0.000000

  
  ERROR 207: duplicate ID name DMH at line 32279 of [CONDUIT] section:
  DMH STA3+85.1 DMH STA3+85 DMH STA3+71 3.969651 0.013000 0.000000 0.448056 0.000000

  
  ERROR 207: duplicate ID name DMH at line 32280 of [CONDUIT] section:
  DMH STA4+08.1 DMH STA4+08 DMH STA3+85 6.385324 0.013000 0.000000 0.457200 0.000000

  
  ERROR 207: duplicate ID name DMH at line 32281 of [CONDUIT] section:
  DMH STA7+99.1 DMH STA7+99 DMH STA 50+4 91.426613 0.013000 0.000000 0.000000 0.000000

  
  ERROR 207: duplicate ID name Field at line 32372 of [CONDUIT] section:
  Field DMH 31.1 Field DMH 31 DMH-29 78.275496 0.011000 0.000000 0.009144 0.000000

  
  ERROR 207: duplicate ID name Field at line 32373 of [CONDUIT] section:
  Field SMH15.1 Field SMH15 S61SMH2910 77.511806 0.017000 0.000000 0.000000 0.000000

  
  ERROR 207: duplicate ID name Hazel at line 32376 of [CONDUIT] section:
  Hazel DMH50.1 Hazel DMH50 D38DMH2225 7.743971 0.011000 0.000000 0.012192 0.000000

  
  ERROR 207: duplicate ID name Saville at line 32378 of [CONDUIT] section:
  Saville DMH59.1 Saville DMH59 C2401B-1571 70.488867 0.011000 0.000000 0.405689 0.000000


  Analysis begun on:  Tue Jun 23 21:01:09 2026
  Analysis ended on:  Tue Jun 23 21:01:09 2026
  Total elapsed time: < 1 sec