
  EPA STORM WATER MANAGEMENT MODEL - VERSION 5.2 (Build 5.2.4)
  ------------------------------------------------------------

  WARNING 01: wet weather time step reduced to recording interval for Rain Gage RAINGAGE-1
  WARNING 04: minimum elevation drop used for Conduit CDT-21
  WARNING 04: minimum elevation drop used for Conduit SML2195W0C
  
  ****************
  Analysis Options
  ****************
  Flow Units ............... CFS
  Process Models:
    Rainfall/Runoff ........ YES
    RDII ................... YES
    Snowmelt ............... NO
    Groundwater ............ NO
    Flow Routing ........... YES
    Ponding Allowed ........ NO
    Water Quality .......... NO
  Flow Routing Method ...... DYNWAVE
  Surcharge Method ......... EXTRAN
  Starting Date ............ 01/11/1983 00:00:00
  Ending Date .............. 01/11/1983 23:00:00
  Antecedent Dry Days ...... 5.0
  Report Time Step ......... 00:05:00
  Routing Time Step ........ 7.00 sec
  Variable Time Step ....... YES
  Maximum Trials ........... 4
  Number of Threads ........ 1
  Head Tolerance ........... 0.005000 ft
  
  
  **********************           Volume        Volume
  Rainfall Dependent I/I        acre-feet      10^6 gal
  **********************        ---------     ---------
  Sewershed Rainfall ......         0.000         0.000
  RDII Produced ...........         0.000         0.000
  RDII Ratio ..............         0.000
  
  
  *********************
  Control Actions Taken
  *********************

  
  **************************        Volume        Volume
  Flow Routing Continuity        acre-feet      10^6 gal
  **************************     ---------     ---------
  Dry Weather Inflow .......         0.128         0.042
  Wet Weather Inflow .......         0.000         0.000
  Groundwater Inflow .......         0.000         0.000
  RDII Inflow ..............         0.000         0.000
  External Inflow ..........        76.029        24.775
  External Outflow .........        75.926        24.742
  Flooding Loss ............         0.000         0.000
  Evaporation Loss .........         0.000         0.000
  Exfiltration Loss ........         0.000         0.000
  Initial Stored Volume ....         0.000         0.000
  Final Stored Volume ......         0.191         0.062
  Continuity Error (%) .....         0.053
  
  
  *************************
  Highest Continuity Errors
  *************************
  Node SMH2195W12 (69.05%)
  
  
  ***************************
  Time-Step Critical Elements
  ***************************
  Link SML2195V07 (99.49%)
  
  
  ********************************
  Highest Flow Instability Indexes
  ********************************
  Link SML2195W0C (149)
  
  
  *********************************
  Most Frequent Nonconverging Nodes
  *********************************
  Node OFALL-30 (0.48%)
  Node OFALL-90 (0.48%)
  Node DIV-10 (0.30%)
  Node SMH2195W12 (0.28%)
  Node SMH2195V01 (0.07%)
  
  
  *************************
  Routing Time Step Summary
  *************************
  Minimum Time Step           :     0.99 sec
  Average Time Step           :     6.34 sec
  Maximum Time Step           :     7.00 sec
  % of Time in Steady State   :     0.00
  Average Iterations per Step :     2.01
  % of Steps Not Converging   :     0.48
  Time Step Frequencies       :
      7.000 -  4.129 sec      :    99.97 %
      4.129 -  2.436 sec      :     0.02 %
      2.436 -  1.437 sec      :     0.01 %
      1.437 -  0.848 sec      :     0.01 %
      0.848 -  0.500 sec      :     0.00 %
  
  
  ******************
  Node Depth Summary
  ******************
  
  ---------------------------------------------------------------------------------
                                 Average  Maximum  Maximum  Time of Max    Reported
                                   Depth    Depth      HGL   Occurrence   Max Depth
  Node                 Type         Feet     Feet     Feet  days hr:min        Feet
  ---------------------------------------------------------------------------------
  JCT-1370             JUNCTION     0.00     0.00    -3.99     0  00:00        0.00
  LW_2095S07           JUNCTION     4.56     4.72    30.05     0  00:01        4.56
  NID7720              JUNCTION     0.00     0.00   -10.00     0  00:00        0.00
  SMH2095S05           JUNCTION     0.74     1.42    31.04     0  00:00        0.77
  SMH2095S15           JUNCTION     1.34     1.35    17.85     0  00:04        1.34
  SMH2095S19           JUNCTION     1.59     1.60    17.32     0  00:07        1.60
  SMH2195V01           JUNCTION     4.85     9.58    32.46     0  00:00        4.85
  SMH2195V04           JUNCTION     1.05     2.03    19.66     0  00:00        1.05
  SMH2195V06           JUNCTION     1.34     1.36    16.39     0  00:04        1.35
  SMH2195V07           JUNCTION     1.48     1.55    15.71     0  00:04        1.54
  SMH2195V11           JUNCTION     0.84     0.89    14.71     0  00:04        0.86
  SMH2195V12           JUNCTION     1.00     1.43    11.75     0  00:05        1.32
  SMH2195V13           JUNCTION     1.36     1.51    11.22     0  00:05        1.37
  SMH2195W04           JUNCTION     0.00     0.00     1.53     0  00:00        0.00
  SMH2195W08           JUNCTION     0.89     1.26     1.46     0  00:02        0.91
  SMH2195W12           JUNCTION     4.37     4.62     0.63     0  00:06        4.41
  SMH2195W13           JUNCTION     0.00     0.00    -5.29     0  00:00        0.00
  SPMH_2195W11         JUNCTION     3.06     3.32     0.24     0  00:07        3.11
  OFALL-30             OUTFALL      0.00     0.00   -10.00     0  00:00        0.00
  OFALL-90             OUTFALL      1.99     2.00    -0.83     0  00:06        2.00
  DIV-10               DIVIDER      4.37     5.08     1.09     0  00:03        4.43
  
  
  *******************
  Node Inflow Summary
  *******************
  
  -------------------------------------------------------------------------------------------------
                                  Maximum  Maximum                  Lateral       Total        Flow
                                  Lateral    Total  Time of Max      Inflow      Inflow     Balance
                                   Inflow   Inflow   Occurrence      Volume      Volume       Error
  Node                 Type           CFS      CFS  days hr:min    10^6 gal    10^6 gal     Percent
  -------------------------------------------------------------------------------------------------
  JCT-1370             JUNCTION      0.00     0.00     0  00:00           0           0       0.000 gal
  LW_2095S07           JUNCTION      0.00    28.45     0  00:01           0        12.4       0.044
  NID7720              JUNCTION      0.00     0.00     0  00:00           0           0       0.000 gal
  SMH2095S05           JUNCTION     20.00    20.00     0  00:00        12.4        12.4       0.027
  SMH2095S15           JUNCTION      0.00    22.46     0  00:02           0        12.4       0.087
  SMH2095S19           JUNCTION      0.00    20.45     0  00:04           0        12.4       0.045
  SMH2195V01           JUNCTION     20.00    20.00     0  00:00        12.4        12.4      -0.094
  SMH2195V04           JUNCTION      0.00    55.34     0  00:00           0        12.4       0.026
  SMH2195V06           JUNCTION      0.00    20.21     0  00:03           0        12.4       0.061
  SMH2195V07           JUNCTION      0.00    20.10     0  00:05           0        12.4       0.028
  SMH2195V11           JUNCTION      0.09    20.94     0  00:05      0.0415        12.4       0.016
  SMH2195V12           JUNCTION      0.00    21.07     0  00:04           0        12.4       0.022
  SMH2195V13           JUNCTION      0.00    47.43     0  00:01           0        24.8       0.034
  SMH2195W04           JUNCTION      0.00     0.00     0  00:00           0           0       0.000 gal
  SMH2195W08           JUNCTION      0.00    48.25     0  00:06           0        24.8       0.037
  SMH2195W12           JUNCTION      0.00    11.15     0  00:02           0     0.00463     223.145
  SMH2195W13           JUNCTION      0.00     0.00     0  00:00           0           0       0.000 gal
  SPMH_2195W11         JUNCTION      0.00    54.13     0  00:06           0        24.8       0.026
  OFALL-30             OUTFALL       0.00     0.00     0  00:00           0           0       0.000 gal
  OFALL-90             OUTFALL       0.00    42.41     0  00:07           0        24.7       0.000
  DIV-10               DIVIDER       0.00    45.03     0  00:03           0        24.8       0.063
  
  
  **********************
  Node Surcharge Summary
  **********************
  
  Surcharging occurs when water rises above the top of the highest conduit.
  ---------------------------------------------------------------------
                                               Max. Height   Min. Depth
                                   Hours       Above Crown    Below Rim
  Node                 Type      Surcharged           Feet         Feet
  ---------------------------------------------------------------------
  SMH2195V01           JUNCTION        0.01          3.259       10.661
  DIV-10               DIVIDER        22.90          1.585       13.905
  
  
  *********************
  Node Flooding Summary
  *********************
  
  No nodes were flooded.
  
  
  ***********************
  Outfall Loading Summary
  ***********************
  
  -----------------------------------------------------------
                         Flow       Avg       Max       Total
                         Freq      Flow      Flow      Volume
  Outfall Node           Pcnt       CFS       CFS    10^6 gal
  -----------------------------------------------------------
  OFALL-30               0.00      0.00      0.00       0.000
  OFALL-90              99.82     40.01     42.41      24.740
  -----------------------------------------------------------
  System                49.91     40.01     42.41      24.740
  
  
  ********************
  Link Flow Summary
  ********************
  
  -----------------------------------------------------------------------------
                                 Maximum  Time of Max   Maximum    Max/    Max/
                                  |Flow|   Occurrence   |Veloc|    Full    Full
  Link                 Type          CFS  days hr:min    ft/sec    Flow   Depth
  -----------------------------------------------------------------------------
  CDT-1899             CONDUIT      0.00     0  00:00      0.00    0.00    0.00
  CDT-21               CONDUIT      0.00     0  00:00      0.00    0.00    0.00
  SML2095S05           CONDUIT     28.45     0  00:01     15.26    0.24    0.44
  SML2095S15           CONDUIT     20.45     0  00:04      6.29    0.38    0.47
  SML2095S19           CONDUIT     20.21     0  00:03      5.91    0.46    0.42
  SML2095S7A           CONDUIT     22.46     0  00:02     11.83    0.42    0.49
  SML2195V04           CONDUIT     47.43     0  00:01     12.98    0.87    0.75
  SML2195V06           CONDUIT     20.10     0  00:05      6.10    0.24    0.39
  SML2195V07           CONDUIT     20.88     0  00:05      5.51    0.72    0.42
  SML2195V11           CONDUIT     21.07     0  00:04     11.23    0.13    0.31
  SML2195V12           CONDUIT     26.97     0  00:05      8.47    0.17    0.39
  SML2195V13           CONDUIT     48.25     0  00:06     14.98    0.35    0.38
  SML2195V1B           CONDUIT     55.34     0  00:00     13.38    0.99    0.88
  SML2195W08           CONDUIT     54.13     0  00:06     17.66    0.19    0.38
  SML2195W0C           CONDUIT     11.15     0  00:02      3.46    1.67    1.00
  SML2195W0D           CONDUIT     42.41     0  00:07     13.50    1.09    1.00
  SML2195W11           CONDUIT     45.03     0  00:03     33.53    0.22    0.75
  SML2195W13           CONDUIT      0.00     0  00:00      0.00    0.00    0.00
  SML2195W4A           CONDUIT      0.00     0  00:00      0.00    0.00    0.50
  WEIR-17              WEIR         0.00     0  00:00                      0.00
  
  
  ***************************
  Flow Classification Summary
  ***************************
  
  -------------------------------------------------------------------------------------
                      Adjusted    ---------- Fraction of Time in Flow Class ---------- 
                       /Actual         Up    Down  Sub   Sup   Up    Down  Norm  Inlet 
  Conduit               Length    Dry  Dry   Dry   Crit  Crit  Crit  Crit  Ltd   Ctrl  
  -------------------------------------------------------------------------------------
  CDT-1899               13.26   1.00  0.00  0.00  0.00  0.00  0.00  0.00  0.00  0.00
  CDT-21                 11.77   1.00  0.00  0.00  0.00  0.00  0.00  0.00  0.00  0.00
  SML2095S05             25.04   0.00  0.00  0.00  0.00  1.00  0.00  0.00  0.00  0.00
  SML2095S15              1.13   0.00  0.00  0.00  0.00  1.00  0.00  0.00  0.00  0.00
  SML2095S19              1.00   0.00  0.00  0.00  1.00  0.00  0.00  0.00  0.00  0.00
  SML2095S7A              1.00   0.00  0.00  0.00  0.00  1.00  0.00  0.00  1.00  0.00
  SML2195V04              1.00   0.00  0.00  0.00  0.00  0.00  0.00  1.00  0.00  0.00
  SML2195V06              1.03   0.00  0.00  0.00  0.00  1.00  0.00  0.00  0.00  0.00
  SML2195V07              2.00   0.00  0.00  0.00  0.00  0.00  0.00  1.00  0.00  0.00
  SML2195V11              1.33   0.00  0.00  0.00  0.00  1.00  0.00  0.00  1.00  0.00
  SML2195V12              7.32   0.00  0.00  0.00  0.00  1.00  0.00  0.00  0.00  0.00
  SML2195V13              1.00   0.00  0.00  0.00  0.00  1.00  0.00  0.00  0.00  0.00
  SML2195V1B              1.00   0.00  0.00  0.00  0.00  0.00  0.00  1.00  0.00  0.00
  SML2195W08             13.62   0.00  0.00  0.00  0.00  1.00  0.00  0.00  0.00  0.00
  SML2195W0C              3.51   0.00  0.00  0.00  1.00  0.00  0.00  0.00  0.00  0.00
  SML2195W0D              3.68   0.00  0.00  0.00  1.00  0.00  0.00  0.00  0.00  0.00
  SML2195W11              3.90   0.00  0.00  0.00  1.00  0.00  0.00  0.00  0.00  0.00
  SML2195W13              1.54   1.00  0.00  0.00  0.00  0.00  0.00  0.00  0.00  0.00
  SML2195W4A              1.00   0.00  1.00  0.00  0.00  0.00  0.00  0.00  0.00  0.00
  
  
  *************************
  Conduit Surcharge Summary
  *************************
  
  ----------------------------------------------------------------------------
                                                           Hours        Hours 
                         --------- Hours Full --------   Above Full   Capacity
  Conduit                Both Ends  Upstream  Dnstream   Normal Flow   Limited
  ----------------------------------------------------------------------------
  SML2195V1B                  0.01      0.01      0.01      0.01         0.01
  SML2195W0C                 22.90     22.90     22.90      0.01         0.07
  SML2195W0D                 22.89     22.89     22.96     22.89         0.01
  SML2195W11                  0.01      0.01     22.90      0.01         0.01
  

  Analysis begun on:  Tue Jun 23 21:01:09 2026
  Analysis ended on:  Tue Jun 23 21:01:09 2026
  Total elapsed time: < 1 sec