
  EPA STORM WATER MANAGEMENT MODEL - VERSION 5.2 (Build 5.2.4)
  ------------------------------------------------------------

  
  ERROR 209: undefined object FLTE_12EY_10min_1 at line 305 of [SUBCATCHMENT] section:
    Node0#1          FLTE_12EY_10min_1 Node0            14.822   0        235.279  7.29     0                

  
  ERROR 209: undefined object FLTE_12EY_10min_1 at line 306 of [SUBCATCHMENT] section:
    Node0#2          FLTE_12EY_10min_1 Node0            4.542    100      235.279  7.29     0                

  
  ERROR 209: undefined object FLTE_12EY_10min_1 at line 307 of [SUBCATCHMENT] section:
    Node1#1          FLTE_12EY_10min_1 Node1            15.618   0        307.979  8.24     0                

  
  ERROR 209: undefined object FLTE_12EY_10min_1 at line 308 of [SUBCATCHMENT] section:
    Node1#2          FLTE_12EY_10min_1 Node1            5.324    100      307.979  8.24     0                

  
  ERROR 209: undefined object FLTE_12EY_10min_1 at line 309 of [SUBCATCHMENT] section:
    Node2#1          FLTE_12EY_10min_1 Node2            4.343    0        217.898  4.03     0                

  
  ERROR 209: undefined object FLTE_12EY_10min_1 at line 310 of [SUBCATCHMENT] section:
    Node2#2          FLTE_12EY_10min_1 Node2            5.397    100      217.898  4.03     0                

  
  ERROR 209: undefined object FLTE_12EY_10min_1 at line 311 of [SUBCATCHMENT] section:
    Node3#1          FLTE_12EY_10min_1 Node3            3.389    0        193.68   3.83     0                

  
  ERROR 209: undefined object FLTE_12EY_10min_1 at line 312 of [SUBCATCHMENT] section:
    Node3#2          FLTE_12EY_10min_1 Node3            4.203    100      193.68   3.83     0                

  
  ERROR 209: undefined object FLTE_12EY_10min_1 at line 313 of [SUBCATCHMENT] section:
    Node4#1          FLTE_12EY_10min_1 Node4            5.633    0        176.837  2.68     0                

  
  ERROR 209: undefined object FLTE_12EY_10min_1 at line 314 of [SUBCATCHMENT] section:
    Node4#2          FLTE_12EY_10min_1 Node4            7.577    100      176.837  2.68     0                

  
  ERROR 209: undefined object FLTE_12EY_10min_1 at line 315 of [SUBCATCHMENT] section:
    Node5#1          FLTE_12EY_10min_1 Node5            0.949    0        115.801  2.79     0                

  
  ERROR 209: undefined object FLTE_12EY_10min_1 at line 316 of [SUBCATCHMENT] section:
    Node5#2          FLTE_12EY_10min_1 Node5            1.75     100      115.801  2.79     0                

  
  ERROR 209: undefined object FLTE_12EY_10min_1 at line 317 of [SUBCATCHMENT] section:
    Node6#1          FLTE_12EY_10min_1 Node6            4.446    0        229.181  2.65     0                

  
  ERROR 209: undefined object FLTE_12EY_10min_1 at line 318 of [SUBCATCHMENT] section:
    Node6#2          FLTE_12EY_10min_1 Node6            5.053    100      229.181  2.65     0                

  
  ERROR 209: undefined object FLTE_12EY_10min_1 at line 319 of [SUBCATCHMENT] section:
    Node8#1          FLTE_12EY_10min_1 Node8            8.477    0        312.366  1.34     0                

  
  ERROR 209: undefined object FLTE_12EY_10min_1 at line 320 of [SUBCATCHMENT] section:
    Node8#2          FLTE_12EY_10min_1 Node8            14.794   100      312.366  1.34     0                

  
  ERROR 209: undefined object FLTE_12EY_10min_1 at line 321 of [SUBCATCHMENT] section:
    Node9#1          FLTE_12EY_10min_1 Node9            2.682    0        170.006  2.03     0                

  
  ERROR 209: undefined object FLTE_12EY_10min_1 at line 322 of [SUBCATCHMENT] section:
    Node9#2          FLTE_12EY_10min_1 Node9            4.441    100      170.006  2.03     0                

  
  ERROR 209: undefined object FLTE_12EY_10min_1 at line 323 of [SUBCATCHMENT] section:
    Node10#1         FLTE_12EY_10min_1 Node10           16.331   0        321.764  2.89     0                

  
  ERROR 209: undefined object FLTE_12EY_10min_1 at line 324 of [SUBCATCHMENT] section:
    Node10#2         FLTE_12EY_10min_1 Node10           2.593    100      321.764  2.89     0                

  
  ERROR 209: undefined object FLTE_12EY_10min_1 at line 325 of [SUBCATCHMENT] section:
    Node11#1         FLTE_12EY_10min_1 Node11           7.321    0        225.717  3.04     0                

  
  ERROR 209: undefined object FLTE_12EY_10min_1 at line 326 of [SUBCATCHMENT] section:
    Node11#2         FLTE_12EY_10min_1 Node11           10.128   100      225.717  3.04     0                

  
  ERROR 209: undefined object FLTE_12EY_10min_1 at line 327 of [SUBCATCHMENT] section:
    Node12#1         FLTE_12EY_10min_1 Node12           11.595   0        278.131  1.25     0                

  
  ERROR 209: undefined object FLTE_12EY_10min_1 at line 328 of [SUBCATCHMENT] section:
    Node12#2         FLTE_12EY_10min_1 Node12           13.903   100      278.131  1.25     0                

  
  ERROR 209: undefined object FLTE_12EY_10min_1 at line 329 of [SUBCATCHMENT] section:
    Node13#1         FLTE_12EY_10min_1 Node13           9.786    0        297.464  1.29     0                

  
  ERROR 209: undefined object FLTE_12EY_10min_1 at line 330 of [SUBCATCHMENT] section:
    Node13#2         FLTE_12EY_10min_1 Node13           11.551   100      297.464  1.29     0                

  
  ERROR 209: undefined object FLTE_12EY_10min_1 at line 331 of [SUBCATCHMENT] section:
    Node14#1         FLTE_12EY_10min_1 Node14           6.361    0        149.392  0.77     0                

  
  ERROR 209: undefined object FLTE_12EY_10min_1 at line 332 of [SUBCATCHMENT] section:
    Node14#2         FLTE_12EY_10min_1 Node14           5.268    100      149.392  0.77     0                

  
  ERROR 209: undefined object FLTE_12EY_10min_1 at line 333 of [SUBCATCHMENT] section:
    Node15#1         FLTE_12EY_10min_1 Node15           1.599    0        287.48   1.29     0                

  
  ERROR 209: undefined object FLTE_12EY_10min_1 at line 334 of [SUBCATCHMENT] section:
    Node15#2         FLTE_12EY_10min_1 Node15           8.453    100      287.48   1.29     0                

  
  ERROR 209: undefined object FLTE_12EY_10min_1 at line 335 of [SUBCATCHMENT] section:
    Node16#1         FLTE_12EY_10min_1 Node16           1.489    0        195.419  1.11     0                

  
  ERROR 209: undefined object FLTE_12EY_10min_1 at line 336 of [SUBCATCHMENT] section:
    Node16#2         FLTE_12EY_10min_1 Node16           6.403    100      195.419  1.11     0                

  
  ERROR 209: undefined object FLTE_12EY_10min_1 at line 337 of [SUBCATCHMENT] section:
    Node17#1         FLTE_12EY_10min_1 Node17           2.639    0        154.728  0.67     0                

  
  ERROR 209: undefined object FLTE_12EY_10min_1 at line 338 of [SUBCATCHMENT] section:
    Node17#2         FLTE_12EY_10min_1 Node17           1.982    100      154.728  0.67     0                

  
  ERROR 209: undefined object FLTE_12EY_10min_1 at line 339 of [SUBCATCHMENT] section:
    Node18#1         FLTE_12EY_10min_1 Node18           8.765    0        210.164  1.04     0                

  
  ERROR 209: undefined object FLTE_12EY_10min_1 at line 340 of [SUBCATCHMENT] section:
    Node18#2         FLTE_12EY_10min_1 Node18           12.407   100      210.164  1.04     0                

  
  ERROR 209: undefined object FLTE_12EY_10min_1 at line 341 of [SUBCATCHMENT] section:
    Node19#1         FLTE_12EY_10min_1 Node19           2.282    0        128.256  0.42     0                

  
  ERROR 209: undefined object FLTE_12EY_10min_1 at line 342 of [SUBCATCHMENT] section:
    Node19#2         FLTE_12EY_10min_1 Node19           2.344    100      128.256  0.42     0                

  
  ERROR 209: undefined object FLTE_12EY_10min_1 at line 343 of [SUBCATCHMENT] section:
    Node20#1         FLTE_12EY_10min_1 Node20           2.309    0        100.52   0.17     0                

  
  ERROR 209: undefined object FLTE_12EY_10min_1 at line 344 of [SUBCATCHMENT] section:
    Node20#2         FLTE_12EY_10min_1 Node20           3.779    100      100.52   0.17     0                

  
  ERROR 209: undefined object FLTE_12EY_10min_1 at line 345 of [SUBCATCHMENT] section:
    Node21#1         FLTE_12EY_10min_1 Node21           8.778    0        100.703  0.86     0                

  
  ERROR 209: undefined object FLTE_12EY_10min_1 at line 346 of [SUBCATCHMENT] section:
    Node21#2         FLTE_12EY_10min_1 Node21           4.035    100      100.703  0.86     0                

  
  ERROR 209: undefined object FLTE_12EY_10min_1 at line 347 of [SUBCATCHMENT] section:
    Node22#1         FLTE_12EY_10min_1 Node22           4.438    0        206.943  0.76     0                

  
  ERROR 209: undefined object FLTE_12EY_10min_1 at line 348 of [SUBCATCHMENT] section:
    Node22#2         FLTE_12EY_10min_1 Node22           6.39     100      206.943  0.76     0                

  
  ERROR 209: undefined object FLTE_12EY_10min_1 at line 349 of [SUBCATCHMENT] section:
    Node23#1         FLTE_12EY_10min_1 Node23           4.107    0        140.808  0.26     0                

  
  ERROR 209: undefined object FLTE_12EY_10min_1 at line 350 of [SUBCATCHMENT] section:
    Node23#2         FLTE_12EY_10min_1 Node23           3.921    100      140.808  0.26     0                

  
  ERROR 209: undefined object FLTE_12EY_10min_1 at line 351 of [SUBCATCHMENT] section:
    Node24#1         FLTE_12EY_10min_1 Node24           2.36     0        183.511  0.15     0                

  
  ERROR 209: undefined object FLTE_12EY_10min_1 at line 352 of [SUBCATCHMENT] section:
    Node24#2         FLTE_12EY_10min_1 Node24           3.627    100      183.511  0.15     0                

  
  ERROR 209: undefined object FLTE_12EY_10min_1 at line 353 of [SUBCATCHMENT] section:
    Node25#1         FLTE_12EY_10min_1 Node25           3.589    0        86.912   0.23     0                

  
  ERROR 209: undefined object FLTE_12EY_10min_1 at line 354 of [SUBCATCHMENT] section:
    Node25#2         FLTE_12EY_10min_1 Node25           2.117    100      86.912   0.23     0                

  
  ERROR 209: undefined object FLTE_12EY_10min_1 at line 355 of [SUBCATCHMENT] section:
    Node26#1         FLTE_12EY_10min_1 Node26           2.26     0        243.447  0.26     0                

  
  ERROR 209: undefined object FLTE_12EY_10min_1 at line 356 of [SUBCATCHMENT] section:
    Node26#2         FLTE_12EY_10min_1 Node26           2.403    100      243.447  0.26     0                

  
  ERROR 209: undefined object FLTE_12EY_10min_1 at line 357 of [SUBCATCHMENT] section:
    Node27#1         FLTE_12EY_10min_1 Node27           2.395    0        281.788  0.41     0                

  
  ERROR 209: undefined object FLTE_12EY_10min_1 at line 358 of [SUBCATCHMENT] section:
    Node27#2         FLTE_12EY_10min_1 Node27           1.046    100      281.788  0.41     0                

  
  ERROR 209: undefined object FLTE_12EY_10min_1 at line 359 of [SUBCATCHMENT] section:
    Node28#1         FLTE_12EY_10min_1 Node28           6.354    0        250.98   1.27     0                

  
  ERROR 209: undefined object FLTE_12EY_10min_1 at line 360 of [SUBCATCHMENT] section:
    Node28#2         FLTE_12EY_10min_1 Node28           10.441   100      250.98   1.27     0                

  
  ERROR 209: undefined object FLTE_12EY_10min_1 at line 361 of [SUBCATCHMENT] section:
    Node30#1         FLTE_12EY_10min_1 Node30           5.568    0        213.514  1.53     0                

  
  ERROR 209: undefined object FLTE_12EY_10min_1 at line 362 of [SUBCATCHMENT] section:
    Node30#2         FLTE_12EY_10min_1 Node30           6.961    100      213.514  1.53     0                

  
  ERROR 209: undefined object FLTE_12EY_10min_1 at line 363 of [SUBCATCHMENT] section:
    Node31#1         FLTE_12EY_10min_1 Node31           13.559   0        459.436  1.65     0                

  
  ERROR 209: undefined object FLTE_12EY_10min_1 at line 364 of [SUBCATCHMENT] section:
    Node31#2         FLTE_12EY_10min_1 Node31           15.635   100      459.436  1.65     0                

  
  ERROR 209: undefined object FLTE_12EY_10min_1 at line 365 of [SUBCATCHMENT] section:
    Node32#1         FLTE_12EY_10min_1 Node32           26.437   0        428.263  0.51     0                

  
  ERROR 209: undefined object FLTE_12EY_10min_1 at line 366 of [SUBCATCHMENT] section:
    Node32#2         FLTE_12EY_10min_1 Node32           23.571   100      428.263  0.51     0                

  
  ERROR 209: undefined object FLTE_12EY_10min_1 at line 367 of [SUBCATCHMENT] section:
    Node33#1         FLTE_12EY_10min_1 Node33           4.485    0        176.557  6.32     0                

  
  ERROR 209: undefined object FLTE_12EY_10min_1 at line 368 of [SUBCATCHMENT] section:
    Node33#2         FLTE_12EY_10min_1 Node33           3.055    100      176.557  6.32     0                

  
  ERROR 209: undefined object FLTE_12EY_10min_1 at line 369 of [SUBCATCHMENT] section:
    Node34#1         FLTE_12EY_10min_1 Node34           11.482   0        324.831  2.97     0                

  
  ERROR 209: undefined object FLTE_12EY_10min_1 at line 370 of [SUBCATCHMENT] section:
    Node34#2         FLTE_12EY_10min_1 Node34           15.84    100      324.831  2.97     0                

  
  ERROR 209: undefined object FLTE_12EY_10min_1 at line 371 of [SUBCATCHMENT] section:
    Node35#1         FLTE_12EY_10min_1 Node35           3.309    0        199.056  0.4      0                

  
  ERROR 209: undefined object FLTE_12EY_10min_1 at line 372 of [SUBCATCHMENT] section:
    Node35#2         FLTE_12EY_10min_1 Node35           4.218    100      199.056  0.4      0                

  
  ERROR 209: undefined object FLTE_12EY_10min_1 at line 373 of [SUBCATCHMENT] section:
    Node36#1         FLTE_12EY_10min_1 Node36           1.687    0        121.761  5.31     0                

  
  ERROR 209: undefined object FLTE_12EY_10min_1 at line 374 of [SUBCATCHMENT] section:
    Node36#2         FLTE_12EY_10min_1 Node36           1.524    100      121.761  5.31     0                

  
  ERROR 209: undefined object FLTE_12EY_10min_1 at line 375 of [SUBCATCHMENT] section:
    Node37#1         FLTE_12EY_10min_1 Node37           22.011   0        320.9    0.69     0                

  
  ERROR 209: undefined object FLTE_12EY_10min_1 at line 376 of [SUBCATCHMENT] section:
    Node37#2         FLTE_12EY_10min_1 Node37           1.158    100      320.9    0.69     0                

  
  ERROR 209: undefined object FLTE_12EY_10min_1 at line 377 of [SUBCATCHMENT] section:
    Node38#1         FLTE_12EY_10min_1 Node38           38.937   0        641.64   1.87     0                

  
  ERROR 209: undefined object FLTE_12EY_10min_1 at line 378 of [SUBCATCHMENT] section:
    Node38#2         FLTE_12EY_10min_1 Node38           29.526   100      641.64   1.87     0                

  
  ERROR 209: undefined object FLTE_12EY_10min_1 at line 379 of [SUBCATCHMENT] section:
    Node39#1         FLTE_12EY_10min_1 Node39           102.254  0        864.549  0.25     0                

  
  ERROR 209: undefined object FLTE_12EY_10min_1 at line 380 of [SUBCATCHMENT] section:
    Node39#2         FLTE_12EY_10min_1 Node39           118.672  100      864.549  0.25     0                

  
  ERROR 209: undefined object FLTE_12EY_10min_1 at line 381 of [SUBCATCHMENT] section:
    Node40#1         FLTE_12EY_10min_1 Node40           89.806   0        528.377  3.06     0                

  
  ERROR 209: undefined object FLTE_12EY_10min_1 at line 382 of [SUBCATCHMENT] section:
    Node40#2         FLTE_12EY_10min_1 Node40           5.143    100      528.377  3.06     0                

  
  ERROR 209: undefined object FLTE_12EY_10min_1 at line 383 of [SUBCATCHMENT] section:
    Node41#1         FLTE_12EY_10min_1 Node41           40.488   0        482.891  4.91     0                

  
  ERROR 209: undefined object FLTE_12EY_10min_1 at line 384 of [SUBCATCHMENT] section:
    Node41#2         FLTE_12EY_10min_1 Node41           72.605   100      482.891  4.91     0                

  
  ERROR 209: undefined object FLTE_12EY_10min_1 at line 385 of [SUBCATCHMENT] section:
    Node42#1         FLTE_12EY_10min_1 Node42           36.828   0        549.422  3.4      0                

  
  ERROR 209: undefined object FLTE_12EY_10min_1 at line 386 of [SUBCATCHMENT] section:
    Node42#2         FLTE_12EY_10min_1 Node42           76.243   100      549.422  3.4      0                

  
  ERROR 209: undefined object FLTE_12EY_10min_1 at line 387 of [SUBCATCHMENT] section:
    Node43#1         FLTE_12EY_10min_1 Node43           5.877    0        320.147  3.8      0                

  
  ERROR 209: undefined object FLTE_12EY_10min_1 at line 388 of [SUBCATCHMENT] section:
    Node43#2         FLTE_12EY_10min_1 Node43           6.75     100      320.147  3.8      0                

  
  ERROR 209: undefined object FLTE_12EY_10min_1 at line 389 of [SUBCATCHMENT] section:
    Node44#1         FLTE_12EY_10min_1 Node44           4.061    0        188.761  2.08     0                

  
  ERROR 209: undefined object FLTE_12EY_10min_1 at line 390 of [SUBCATCHMENT] section:
    Node44#2         FLTE_12EY_10min_1 Node44           1.826    100      188.761  2.08     0                

  
  ERROR 209: undefined object FLTE_12EY_10min_1 at line 391 of [SUBCATCHMENT] section:
    Node45#1         FLTE_12EY_10min_1 Node45           8.951    0        351.841  1.57     0                

  
  ERROR 209: undefined object FLTE_12EY_10min_1 at line 392 of [SUBCATCHMENT] section:
    Node45#2         FLTE_12EY_10min_1 Node45           11.203   100      351.841  1.57     0                

  
  ERROR 209: undefined object FLTE_12EY_10min_1 at line 393 of [SUBCATCHMENT] section:
    Node46#1         FLTE_12EY_10min_1 Node46           13.014   0        357.664  1.47     0                

  
  ERROR 209: undefined object FLTE_12EY_10min_1 at line 394 of [SUBCATCHMENT] section:
    Node46#2         FLTE_12EY_10min_1 Node46           13.778   100      357.664  1.47     0                

  
  ERROR 209: undefined object FLTE_12EY_10min_1 at line 395 of [SUBCATCHMENT] section:
    Node47#1         FLTE_12EY_10min_1 Node47           31.057   0        418.999  1.89     0                

  
  ERROR 209: undefined object FLTE_12EY_10min_1 at line 396 of [SUBCATCHMENT] section:
    Node47#2         FLTE_12EY_10min_1 Node47           3.37     100      418.999  1.89     0                

  
  ERROR 209: undefined object FLTE_12EY_10min_1 at line 397 of [SUBCATCHMENT] section:
    Node48#1         FLTE_12EY_10min_1 Node48           17.588   0        527.178  0.18     0                

  
  ERROR 209: undefined object FLTE_12EY_10min_1 at line 398 of [SUBCATCHMENT] section:
    Node48#2         FLTE_12EY_10min_1 Node48           27.548   100      527.178  0.18     0                

  
  ERROR 209: undefined object FLTE_12EY_10min_1 at line 399 of [SUBCATCHMENT] section:
    Node49#1         FLTE_12EY_10min_1 Node49           13.941   0        602.97   0.41     0                

  
  ERROR 209: undefined object FLTE_12EY_10min_1 at line 400 of [SUBCATCHMENT] section:
    Node49#2         FLTE_12EY_10min_1 Node49           22.394   100      602.97   0.41     0                

  
  ERROR 209: undefined object FLTE_12EY_10min_1 at line 401 of [SUBCATCHMENT] section:
    Node50#1         FLTE_12EY_10min_1 Node50           3.097    0        199.21   0.24     0                

  
  ERROR 209: undefined object FLTE_12EY_10min_1 at line 402 of [SUBCATCHMENT] section:
    Node50#2         FLTE_12EY_10min_1 Node50           5.11     100      199.21   0.24     0                

  
  ERROR 209: undefined object FLTE_12EY_10min_1 at line 403 of [SUBCATCHMENT] section:
    Node51#1         FLTE_12EY_10min_1 Node51           16.53    0        535.649  0.25     0                

  
  ERROR 209: undefined object FLTE_12EY_10min_1 at line 404 of [SUBCATCHMENT] section:
    Node51#2         FLTE_12EY_10min_1 Node51           26.925   100      535.649  0.25     0                

  
  Maximum error count exceeded.

  Analysis begun on:  Tue Jun 23 21:01:09 2026
  Analysis ended on:  Tue Jun 23 21:01:09 2026
  Total elapsed time: < 1 sec