
  EPA STORM WATER MANAGEMENT MODEL - VERSION 5.2 (Build 5.2.4)
  ------------------------------------------------------------

   UPPER PARRAMATTA RIVER EXTRAN MODEL - 100YR FLOOD 
  WARNING 04: minimum elevation drop used for Conduit P13.1
  WARNING 04: minimum elevation drop used for Conduit P2.1
  WARNING 04: minimum elevation drop used for Conduit P8.1
  WARNING 02: maximum depth increased for Node 10926
  WARNING 02: maximum depth increased for Node 10856
  WARNING 02: maximum depth increased for Node 10801
  WARNING 02: maximum depth increased for Node 10749
  WARNING 02: maximum depth increased for Node 10619
  WARNING 02: maximum depth increased for Node 10535
  WARNING 02: maximum depth increased for Node 10460
  WARNING 02: maximum depth increased for Node 10350
  WARNING 02: maximum depth increased for Node 10205
  WARNING 02: maximum depth increased for Node 10155
  WARNING 02: maximum depth increased for Node 10320
  WARNING 02: maximum depth increased for Node 10976
  
  *************
  Element Count
  *************
  Number of rain gages ...... 0
  Number of subcatchments ... 0
  Number of nodes ........... 28
  Number of links ........... 31
  Number of pollutants ...... 0
  Number of land uses ....... 0
  
  
  ************
  Node Summary
  ************
                                           Invert      Max.    Ponded    External
  Name                 Type                 Elev.     Depth      Area    Inflow  
  -------------------------------------------------------------------------------
  10926                JUNCTION              0.40     99.30       0.0
  10856                JUNCTION              0.35     99.30       0.0
  10801                JUNCTION              0.30     99.25       0.0
  10749                JUNCTION              0.25     99.25       0.0
  10619                JUNCTION              0.20     99.20       0.0
  10535                JUNCTION              0.18     99.20       0.0
  10460                JUNCTION              0.17     98.94       0.0    Yes
  10350                JUNCTION              0.07     98.94       0.0
  10205                JUNCTION              0.05     99.00       0.0
  10155                JUNCTION              0.00     99.00       0.0
  9600                 JUNCTION             -1.67     71.67       0.0
  9000                 JUNCTION             -2.43     72.43       0.0
  8650                 JUNCTION             -3.36     73.36       0.0
  8400                 JUNCTION             -3.18     73.18       0.0    Yes
  8250                 JUNCTION             -2.04     72.04       0.0
  7700                 JUNCTION             -3.25     73.25       0.0    Yes
  7580                 JUNCTION             -2.59     72.59       0.0
  7400                 JUNCTION             -1.88     71.88       0.0
  7120                 JUNCTION             -3.52     73.52       0.0
  7000                 JUNCTION             -3.94     73.94       0.0
  6900                 JUNCTION             -3.71     73.71       0.0
  6250                 JUNCTION             -2.87     72.87       0.0
  5990                 JUNCTION             -3.77     73.77       0.0
  5500                 JUNCTION             -4.58     74.58       0.0    Yes
  10000                JUNCTION             -1.00     71.00       0.0
  10320                JUNCTION              0.07     99.00       0.0    Yes
  5000                 OUTFALL              -4.90     29.73       0.0
  10976                STORAGE               0.56     98.68       0.0    Yes
  
  
  ************
  Link Summary
  ************
  Name             From Node        To Node          Type            Length    %Slope Roughness
  ---------------------------------------------------------------------------------------------
  P13.1            10856            10801            CONDUIT           55.0   -0.0006    0.0500
  P13              10856            10801            CONDUIT           55.0    0.0909    0.0600
  P2.1             10205            10155            CONDUIT           50.0    0.0006    0.0550
  P2               10205            10155            CONDUIT           10.0    0.5000    0.1000
  P17              10976            10926            CONDUIT           50.0    0.3200    0.0450
  P15              10926            10856            CONDUIT           70.0    0.0714    0.0500
  P12              10801            10749            CONDUIT           52.0    0.0962    0.0200
  P11              10749            10619            CONDUIT          130.0    0.0385    0.0100
  P10              10619            10535            CONDUIT           84.0    0.0238    0.0200
  c2               9600             9000             CONDUIT          600.0    0.1267    0.0350
  c3               9000             8650             CONDUIT          350.0    0.2657    0.0200
  c4               8650             8400             CONDUIT          250.0   -0.0720    0.0300
  c5               8400             8250             CONDUIT          150.0   -0.7600    0.0330
  c6               8250             7700             CONDUIT          470.0    0.2574    0.0350
  c7               7700             7580             CONDUIT          200.0   -0.3300    0.0280
  c8               7580             7400             CONDUIT          180.0   -0.3944    0.0350
  c9               7400             7120             CONDUIT          200.0    0.8200    0.0500
  c10              7120             7000             CONDUIT          200.0    0.2100    0.0230
  c11              7000             6900             CONDUIT          150.0   -0.1533    0.0300
  c12              6900             6250             CONDUIT          600.0   -0.1400    0.0470
  c13              6250             5990             CONDUIT          260.0    0.3462    0.0300
  c14              5990             5500             CONDUIT          490.0    0.1653    0.0350
  c15              5500             5000             CONDUIT          500.0    0.0640    0.0200
  c1               10000            9600             CONDUIT          580.0    0.1155    0.0300
  c0               10155            10000            CONDUIT          161.0    0.6211    0.0350
  P6               10460            10350            CONDUIT          107.0    0.0888    0.0200
  P8.1             10535            10460            CONDUIT           75.0    0.0004    0.0400
  P8               10535            10460            CONDUIT           75.0    0.0133    0.0400
  P5               10350            10320            CONDUIT           30.0    0.0167    0.0500
  P5.1             10350            10320            CONDUIT           30.0    0.0167    0.0350
  P5b              10320            10205            CONDUIT          118.0    0.0212    0.0200
  
  
  *********************
  Cross Section Summary
  *********************
                                        Full     Full     Hyd.     Max.   No. of     Full
  Conduit          Shape               Depth     Area     Rad.    Width  Barrels     Flow
  ---------------------------------------------------------------------------------------
  P13.1            NS_                 40.90  2637.71    18.03    64.51        1   854.05
  P13              RECT_CLOSED          6.00   144.00     2.40    24.00        1   129.74
  P2.1             NS_.1               97.44 12762.63    40.10   135.30        1  6713.14
  P2               RECT_CLOSED          0.50     0.25     0.12     0.50        1     0.04
  P17              NS_P17              98.68 12076.43    38.07   127.90        1 171832.15
  P15              NS_P15              99.30  7563.90    28.06    79.26        1 37342.41
  P12              NS_P12              99.25  6246.26    32.49    64.51        1 98623.84
  P11              NS_P11              99.02  6224.59    38.17    64.05        1 138410.52
  P10              NS_P10              99.20 11572.55    47.74   122.05        1 117509.69
  c2               NS_c2               22.43  3833.07    15.85   210.10        1 24599.85
  c3               NS_c3               24.63  2502.06    18.26   123.00        1 44731.12
  c4               NS_c4               27.25  2044.00    20.40   100.00        1 13650.98
  c5               NS_c5               24.05  2735.52    17.35   165.00        1 48442.20
  c6               NS_c6               28.33  2660.58    17.91   105.10        1 26403.99
  c7               NS_c7               25.50  2405.35    17.05   112.00        1 32699.16
  c8               NS_c8               27.13  3837.45    19.01   158.10        1 49056.85
  c9               NS_c9               21.63  3092.01    16.78   151.00        1 36707.40
  c10              NS_c10              24.13  3394.57    13.85   175.00        1 39008.77
  c11              NS_c11              23.83  2903.51    13.65   160.00        1 21654.38
  c12              NS_c12              23.23  2639.07    20.39   125.00        1 15683.81
  c13              NS_c13              27.73  4373.43    22.03   175.10        1 67422.14
  c14              NS_c14              25.00  4031.62    18.93   210.00        1 33271.30
  c15              NS_c15              29.73  4682.39    25.81   180.00        1 51739.07
  c1               NS_c1               20.73  1873.65    14.27   104.10        1 12489.11
  c0               NS_c0               20.60  1873.73    13.68   104.10        1 24137.24
  P6               NS_P6               98.94 13220.22    43.58   138.05        1 243937.99
  P8.1             NS_.2               96.70 12414.76    39.26   130.10        1  7228.82
  P8               RECT_CLOSED          1.70    51.00     0.80    30.00        1    12.74
  P5               RECT_CLOSED          5.60   310.24     2.54    55.40        1   149.26
  P5.1             NS_.3               92.35 11633.10    67.95   126.51        1 71461.08
  P5b              NS_P5b              99.00 12045.73    33.38   126.51        1 90901.82
  
  
  ****************
  Transect Summary
  ****************

  Transect NS_
  Area:  
              0.0199     0.0399     0.0599     0.0799     0.0999 
              0.1199     0.1399     0.1599     0.1799     0.1999 
              0.2199     0.2399     0.2599     0.2799     0.2999 
              0.3199     0.3399     0.3599     0.3799     0.3999 
              0.4199     0.4399     0.4599     0.4799     0.4999 
              0.5199     0.5399     0.5599     0.5799     0.5999 
              0.6199     0.6399     0.6599     0.6799     0.6999 
              0.7199     0.7399     0.7599     0.7799     0.7999 
              0.8200     0.8400     0.8600     0.8800     0.9000 
              0.9200     0.9400     0.9600     0.9800     1.0000 
  Hrad:  
              0.0442     0.0865     0.1268     0.1652     0.2019 
              0.2369     0.2704     0.3025     0.3333     0.3628 
              0.3912     0.4184     0.4446     0.4698     0.4940 
              0.5174     0.5399     0.5617     0.5827     0.6030 
              0.6226     0.6416     0.6600     0.6777     0.6950 
              0.7117     0.7279     0.7436     0.7588     0.7736 
              0.7880     0.8020     0.8156     0.8288     0.8417 
              0.8542     0.8664     0.8783     0.8898     0.9011 
              0.9121     0.9229     0.9333     0.9435     0.9535 
              0.9632     0.9727     0.9820     0.9911     1.0000 
  Width: 
              0.9986     0.9997     0.9997     0.9997     0.9997 
              0.9997     0.9997     0.9997     0.9997     0.9997 
              0.9998     0.9998     0.9998     0.9998     0.9998 
              0.9998     0.9998     0.9998     0.9998     0.9998 
              0.9998     0.9998     0.9998     0.9998     0.9998 
              0.9998     0.9999     0.9999     0.9999     0.9999 
              0.9999     0.9999     0.9999     0.9999     0.9999 
              0.9999     0.9999     0.9999     0.9999     0.9999 
              0.9999     0.9999     1.0000     1.0000     1.0000 
              1.0000     1.0000     1.0000     1.0000     1.0000 

  Transect NS_.1
  Area:  
              0.0076     0.0191     0.0325     0.0500     0.0706 
              0.0913     0.1119     0.1326     0.1532     0.1739 
              0.1945     0.2152     0.2358     0.2565     0.2771 
              0.2978     0.3184     0.3391     0.3597     0.3804 
              0.4010     0.4217     0.4423     0.4630     0.4836 
              0.5043     0.5249     0.5456     0.5662     0.5869 
              0.6075     0.6282     0.6488     0.6695     0.6901 
              0.7108     0.7315     0.7521     0.7728     0.7934 
              0.8141     0.8347     0.8554     0.8760     0.8967 
              0.9174     0.9380     0.9587     0.9793     1.0000 
  Hrad:  
              0.0342     0.0739     0.1045     0.1157     0.1582 
              0.1989     0.2375     0.2742     0.3090     0.3421 
              0.3737     0.4039     0.4326     0.4601     0.4864 
              0.5117     0.5358     0.5590     0.5813     0.6027 
              0.6232     0.6430     0.6621     0.6805     0.6982 
              0.7154     0.7319     0.7479     0.7633     0.7782 
              0.7927     0.8067     0.8203     0.8334     0.8462 
              0.8586     0.8706     0.8823     0.8936     0.9046 
              0.9154     0.9258     0.9359     0.9458     0.9554 
              0.9648     0.9739     0.9829     0.9915     1.0000 
  Width: 
              0.5158     0.5940     0.7131     0.9912     0.9993 
              0.9993     0.9993     0.9993     0.9993     0.9994 
              0.9994     0.9994     0.9994     0.9994     0.9994 
              0.9995     0.9995     0.9995     0.9995     0.9995 
              0.9995     0.9995     0.9996     0.9996     0.9996 
              0.9996     0.9996     0.9996     0.9997     0.9997 
              0.9997     0.9997     0.9997     0.9997     0.9998 
              0.9998     0.9998     0.9998     0.9998     0.9998 
              0.9999     0.9999     0.9999     0.9999     0.9999 
              0.9999     1.0000     1.0000     1.0000     1.0000 

  Transect NS_P17
  Area:  
              0.0023     0.0125     0.0261     0.0405     0.0598 
              0.0807     0.1016     0.1225     0.1433     0.1642 
              0.1851     0.2060     0.2269     0.2478     0.2687 
              0.2896     0.3104     0.3313     0.3522     0.3731 
              0.3940     0.4149     0.4358     0.4567     0.4776 
              0.4985     0.5194     0.5402     0.5611     0.5820 
              0.6029     0.6238     0.6447     0.6656     0.6865 
              0.7074     0.7283     0.7492     0.7701     0.7910 
              0.8119     0.8328     0.8537     0.8746     0.8955 
              0.9164     0.9373     0.9582     0.9791     1.0000 
  Hrad:  
              0.0151     0.0482     0.0897     0.1315     0.1366 
              0.1792     0.2195     0.2577     0.2939     0.3283 
              0.3610     0.3922     0.4219     0.4503     0.4775 
              0.5034     0.5282     0.5520     0.5749     0.5968 
              0.6179     0.6381     0.6576     0.6764     0.6945 
              0.7119     0.7288     0.7450     0.7607     0.7759 
              0.7906     0.8048     0.8186     0.8319     0.8448 
              0.8574     0.8695     0.8813     0.8928     0.9039 
              0.9148     0.9253     0.9355     0.9455     0.9552 
              0.9646     0.9738     0.9828     0.9915     1.0000 
  Width: 
              0.3685     0.6114     0.6776     0.7004     0.9991 
              0.9992     0.9992     0.9992     0.9992     0.9992 
              0.9993     0.9993     0.9993     0.9993     0.9993 
              0.9994     0.9994     0.9994     0.9994     0.9994 
              0.9994     0.9995     0.9995     0.9995     0.9995 
              0.9995     0.9996     0.9996     0.9996     0.9996 
              0.9996     0.9997     0.9997     0.9997     0.9997 
              0.9997     0.9998     0.9998     0.9998     0.9998 
              0.9998     0.9998     0.9999     0.9999     0.9999 
              0.9999     0.9999     1.0000     1.0000     1.0000 

  Transect NS_P15
  Area:  
              0.0044     0.0140     0.0260     0.0429     0.0636 
              0.0844     0.1052     0.1261     0.1469     0.1677 
              0.1885     0.2093     0.2301     0.2509     0.2717 
              0.2925     0.3133     0.3341     0.3549     0.3757 
              0.3965     0.4173     0.4382     0.4590     0.4798 
              0.5006     0.5214     0.5422     0.5630     0.5838 
              0.6046     0.6254     0.6462     0.6670     0.6879 
              0.7087     0.7295     0.7503     0.7711     0.7919 
              0.8127     0.8335     0.8543     0.8751     0.8959 
              0.9168     0.9376     0.9584     0.9792     1.0000 
  Hrad:  
              0.0412     0.0831     0.1290     0.1343     0.1904 
              0.2420     0.2893     0.3330     0.3733     0.4108 
              0.4456     0.4781     0.5084     0.5368     0.5635 
              0.5886     0.6122     0.6346     0.6557     0.6756 
              0.6946     0.7125     0.7296     0.7459     0.7614 
              0.7762     0.7903     0.8039     0.8168     0.8292 
              0.8411     0.8525     0.8634     0.8739     0.8841 
              0.8938     0.9032     0.9123     0.9210     0.9294 
              0.9376     0.9454     0.9530     0.9604     0.9675 
              0.9744     0.9811     0.9876     0.9939     1.0000 
  Width: 
              0.3584     0.5356     0.6209     0.9931     0.9997 
              0.9998     0.9998     0.9998     0.9998     0.9998 
              0.9998     0.9998     0.9998     0.9998     0.9998 
              0.9998     0.9998     0.9998     0.9998     0.9998 
              0.9998     0.9998     0.9998     0.9999     0.9999 
              0.9999     0.9999     0.9999     0.9999     0.9999 
              0.9999     0.9999     0.9999     0.9999     0.9999 
              0.9999     0.9999     0.9999     0.9999     0.9999 
              0.9999     1.0000     1.0000     1.0000     1.0000 
              1.0000     1.0000     1.0000     1.0000     1.0000 

  Transect NS_P12
  Area:  
              0.0065     0.0180     0.0371     0.0575     0.0779 
              0.0984     0.1189     0.1393     0.1598     0.1803 
              0.2008     0.2213     0.2418     0.2623     0.2827 
              0.3032     0.3237     0.3442     0.3647     0.3852 
              0.4057     0.4261     0.4466     0.4671     0.4876 
              0.5081     0.5286     0.5491     0.5696     0.5901 
              0.6106     0.6311     0.6516     0.6720     0.6925 
              0.7130     0.7335     0.7540     0.7745     0.7950 
              0.8155     0.8360     0.8565     0.8770     0.8975 
              0.9180     0.9385     0.9590     0.9795     1.0000 
  Hrad:  
              0.0465     0.0768     0.0989     0.1295     0.1600 
              0.1893     0.2172     0.2437     0.2692     0.2936 
              0.3172     0.3400     0.3622     0.3837     0.4047 
              0.4253     0.4454     0.4651     0.4845     0.5036 
              0.5223     0.5408     0.5591     0.5771     0.5950 
              0.6126     0.6301     0.6473     0.6645     0.6814 
              0.6983     0.7150     0.7316     0.7481     0.7644 
              0.7807     0.7969     0.8129     0.8289     0.8448 
              0.8607     0.8764     0.8921     0.9077     0.9232 
              0.9387     0.9541     0.9695     0.9848     1.0000 
  Width: 
              0.3717     0.7919     0.9900     0.9942     0.9984 
              0.9991     0.9991     0.9991     0.9991     0.9992 
              0.9992     0.9992     0.9992     0.9993     0.9993 
              0.9993     0.9993     0.9993     0.9994     0.9994 
              0.9994     0.9994     0.9994     0.9995     0.9995 
              0.9995     0.9995     0.9995     0.9996     0.9996 
              0.9996     0.9996     0.9996     0.9997     0.9997 
              0.9997     0.9997     0.9998     0.9998     0.9998 
              0.9998     0.9998     0.9999     0.9999     0.9999 
              0.9999     0.9999     1.0000     1.0000     1.0000 

  Transect NS_P11
  Area:  
              0.0077     0.0233     0.0431     0.0634     0.0837 
              0.1040     0.1244     0.1447     0.1651     0.1854 
              0.2058     0.2261     0.2465     0.2668     0.2872 
              0.3076     0.3279     0.3483     0.3686     0.3890 
              0.4093     0.4297     0.4500     0.4704     0.4908 
              0.5111     0.5315     0.5519     0.5722     0.5926 
              0.6129     0.6333     0.6537     0.6740     0.6944 
              0.7148     0.7351     0.7555     0.7759     0.7963 
              0.8166     0.8370     0.8574     0.8777     0.8981 
              0.9185     0.9389     0.9592     0.9796     1.0000 
  Hrad:  
              0.0377     0.0622     0.0845     0.1085     0.1323 
              0.1556     0.1784     0.2007     0.2225     0.2440 
              0.2652     0.2861     0.3067     0.3271     0.3473 
              0.3674     0.3872     0.4070     0.4265     0.4460 
              0.4653     0.4846     0.5037     0.5228     0.5418 
              0.5607     0.5795     0.5983     0.6170     0.6356 
              0.6542     0.6728     0.6912     0.7097     0.7281 
              0.7464     0.7648     0.7830     0.8013     0.8195 
              0.8377     0.8558     0.8739     0.8920     0.9101 
              0.9281     0.9461     0.9641     0.9821     1.0000 
  Width: 
              0.4875     0.9288     0.9908     0.9957     0.9985 
              0.9985     0.9985     0.9986     0.9986     0.9986 
              0.9987     0.9987     0.9987     0.9988     0.9988 
              0.9988     0.9989     0.9989     0.9989     0.9990 
              0.9990     0.9990     0.9991     0.9991     0.9991 
              0.9992     0.9992     0.9992     0.9993     0.9993 
              0.9993     0.9994     0.9994     0.9995     0.9995 
              0.9995     0.9996     0.9996     0.9996     0.9997 
              0.9997     0.9997     0.9998     0.9998     0.9998 
              0.9999     0.9999     0.9999     1.0000     1.0000 

  Transect NS_P10
  Area:  
              0.0038     0.0123     0.0247     0.0401     0.0588 
              0.0797     0.1006     0.1215     0.1424     0.1633 
              0.1842     0.2052     0.2261     0.2470     0.2679 
              0.2888     0.3097     0.3306     0.3515     0.3724 
              0.3934     0.4143     0.4352     0.4561     0.4770 
              0.4979     0.5188     0.5398     0.5607     0.5816 
              0.6025     0.6234     0.6443     0.6653     0.6862 
              0.7071     0.7280     0.7489     0.7699     0.7908 
              0.8117     0.8326     0.8535     0.8745     0.8954 
              0.9163     0.9372     0.9582     0.9791     1.0000 
  Hrad:  
              0.0288     0.0429     0.0760     0.1008     0.1206 
              0.1420     0.1656     0.1896     0.2135     0.2372 
              0.2606     0.2836     0.3062     0.3285     0.3504 
              0.3721     0.3934     0.4145     0.4353     0.4558 
              0.4761     0.4962     0.5160     0.5357     0.5551 
              0.5744     0.5935     0.6124     0.6312     0.6499 
              0.6684     0.6867     0.7050     0.7231     0.7411 
              0.7590     0.7768     0.7945     0.8120     0.8295 
              0.8469     0.8643     0.8815     0.8986     0.9157 
              0.9327     0.9496     0.9665     0.9833     1.0000 
  Width: 
              0.2482     0.5723     0.6537     0.8151     0.9764 
              0.9992     0.9992     0.9992     0.9993     0.9993 
              0.9993     0.9993     0.9993     0.9993     0.9994 
              0.9994     0.9994     0.9994     0.9994     0.9995 
              0.9995     0.9995     0.9995     0.9995     0.9995 
              0.9996     0.9996     0.9996     0.9996     0.9996 
              0.9997     0.9997     0.9997     0.9997     0.9997 
              0.9997     0.9998     0.9998     0.9998     0.9998 
              0.9998     0.9999     0.9999     0.9999     0.9999 
              0.9999     0.9999     1.0000     1.0000     1.0000 

  Transect NS_c2
  Area:  
              0.0009     0.0034     0.0071     0.0115     0.0165 
              0.0220     0.0281     0.0347     0.0419     0.0531 
              0.0690     0.0857     0.1034     0.1222     0.1423 
              0.1654     0.1894     0.2136     0.2381     0.2627 
              0.2872     0.3118     0.3364     0.3609     0.3855 
              0.4101     0.4347     0.4592     0.4838     0.5084 
              0.5329     0.5575     0.5821     0.6067     0.6313 
              0.6558     0.6804     0.7050     0.7296     0.7541 
              0.7787     0.8033     0.8279     0.8525     0.8771 
              0.9017     0.9262     0.9508     0.9754     1.0000 
  Hrad:  
              0.0128     0.0291     0.0484     0.0680     0.0870 
              0.1049     0.1221     0.1387     0.1548     0.0946 
              0.1180     0.1393     0.1574     0.1750     0.1922 
              0.1930     0.2186     0.2438     0.2692     0.2957 
              0.3220     0.3481     0.3740     0.3997     0.4251 
              0.4503     0.4754     0.5002     0.5249     0.5493 
              0.5735     0.5976     0.6215     0.6451     0.6686 
              0.6919     0.7150     0.7380     0.7607     0.7833 
              0.8057     0.8280     0.8501     0.8720     0.8937 
              0.9153     0.9367     0.9580     0.9791     1.0000 
  Width: 
              0.0781     0.1325     0.1661     0.1909     0.2133 
              0.2356     0.2580     0.2803     0.3027     0.6352 
              0.6621     0.6961     0.7436     0.7910     0.8385 
              0.9712     0.9812     0.9911     0.9991     0.9991 
              0.9991     0.9991     0.9992     0.9992     0.9992 
              0.9993     0.9993     0.9993     0.9994     0.9994 
              0.9994     0.9995     0.9995     0.9995     0.9995 
              0.9996     0.9996     0.9996     0.9997     0.9997 
              0.9997     0.9998     0.9998     0.9998     0.9998 
              0.9999     0.9999     0.9999     1.0000     1.0000 

  Transect NS_c3
  Area:  
              0.0033     0.0095     0.0168     0.0252     0.0346 
              0.0453     0.0582     0.0726     0.0880     0.1042 
              0.1213     0.1396     0.1605     0.1817     0.2030 
              0.2244     0.2458     0.2674     0.2890     0.3107 
              0.3325     0.3543     0.3763     0.3983     0.4204 
              0.4426     0.4649     0.4872     0.5097     0.5322 
              0.5548     0.5775     0.6003     0.6231     0.6461 
              0.6691     0.6922     0.7154     0.7386     0.7620 
              0.7854     0.8089     0.8325     0.8562     0.8800 
              0.9038     0.9277     0.9517     0.9758     1.0000 
  Hrad:  
              0.0157     0.0378     0.0573     0.0753     0.0922 
              0.1033     0.1106     0.1298     0.1482     0.1661 
              0.1835     0.2034     0.2247     0.2465     0.2686 
              0.2909     0.3133     0.3357     0.3580     0.3802 
              0.4024     0.4245     0.4465     0.4683     0.4901 
              0.5118     0.5333     0.5548     0.5761     0.5973 
              0.6185     0.6395     0.6604     0.6811     0.7018 
              0.7224     0.7429     0.7632     0.7835     0.8037 
              0.8237     0.8437     0.8636     0.8834     0.9030 
              0.9226     0.9421     0.9615     0.9808     1.0000 
  Width: 
              0.2333     0.2782     0.3231     0.3679     0.4128 
              0.4823     0.5788     0.6153     0.6518     0.6883 
              0.7249     0.8224     0.8738     0.8772     0.8806 
              0.8840     0.8874     0.8909     0.8943     0.8977 
              0.9011     0.9045     0.9079     0.9113     0.9147 
              0.9181     0.9215     0.9250     0.9284     0.9318 
              0.9352     0.9386     0.9420     0.9454     0.9488 
              0.9522     0.9557     0.9591     0.9625     0.9659 
              0.9693     0.9727     0.9761     0.9795     0.9829 
              0.9864     0.9898     0.9932     0.9966     1.0000 

  Transect NS_c4
  Area:  
              0.0007     0.0028     0.0064     0.0114     0.0179 
              0.0261     0.0360     0.0479     0.0615     0.0770 
              0.0943     0.1134     0.1335     0.1537     0.1742 
              0.1948     0.2156     0.2365     0.2577     0.2790 
              0.3005     0.3222     0.3440     0.3660     0.3882 
              0.4106     0.4331     0.4558     0.4787     0.5018 
              0.5250     0.5485     0.5721     0.5958     0.6198 
              0.6439     0.6682     0.6927     0.7173     0.7421 
              0.7671     0.7923     0.8177     0.8432     0.8689 
              0.8947     0.9208     0.9470     0.9734     1.0000 
  Hrad:  
              0.0130     0.0261     0.0388     0.0517     0.0643 
              0.0749     0.0864     0.0983     0.1106     0.1230 
              0.1356     0.1485     0.1746     0.2003     0.2258 
              0.2511     0.2761     0.3009     0.3256     0.3500 
              0.3741     0.3981     0.4219     0.4455     0.4689 
              0.4922     0.5152     0.5381     0.5607     0.5832 
              0.6056     0.6277     0.6497     0.6715     0.6932 
              0.7147     0.7360     0.7572     0.7783     0.7991 
              0.8199     0.8404     0.8609     0.8812     0.9013 
              0.9213     0.9412     0.9609     0.9805     1.0000 
  Width: 
              0.0530     0.1060     0.1606     0.2157     0.2721 
              0.3405     0.4090     0.4774     0.5459     0.6143 
              0.6828     0.7501     0.7567     0.7633     0.7698 
              0.7764     0.7830     0.7896     0.7962     0.8027 
              0.8093     0.8159     0.8225     0.8290     0.8356 
              0.8422     0.8488     0.8553     0.8619     0.8685 
              0.8751     0.8816     0.8882     0.8948     0.9014 
              0.9079     0.9145     0.9211     0.9277     0.9342 
              0.9408     0.9474     0.9540     0.9605     0.9671 
              0.9737     0.9803     0.9868     0.9934     1.0000 

  Transect NS_c5
  Area:  
              0.0021     0.0062     0.0124     0.0213     0.0314 
              0.0429     0.0556     0.0696     0.0845     0.0998 
              0.1157     0.1321     0.1489     0.1661     0.1836 
              0.2014     0.2195     0.2380     0.2567     0.2758 
              0.2953     0.3150     0.3351     0.3555     0.3762 
              0.3973     0.4187     0.4404     0.4624     0.4847 
              0.5074     0.5304     0.5537     0.5774     0.6014 
              0.6257     0.6503     0.6752     0.7005     0.7261 
              0.7520     0.7783     0.8049     0.8318     0.8590 
              0.8865     0.9144     0.9426     0.9711     1.0000 
  Hrad:  
              0.0182     0.0336     0.0414     0.0615     0.0800 
              0.0975     0.1143     0.1309     0.1578     0.1837 
              0.2088     0.2334     0.2576     0.2817     0.3055 
              0.3289     0.3521     0.3751     0.3977     0.4201 
              0.4422     0.4640     0.4856     0.5070     0.5281 
              0.5490     0.5697     0.5902     0.6105     0.6306 
              0.6505     0.6702     0.6898     0.7092     0.7284 
              0.7475     0.7664     0.7851     0.8037     0.8222 
              0.8406     0.8588     0.8768     0.8948     0.9126 
              0.9303     0.9479     0.9654     0.9827     1.0000 
  Width: 
              0.1082     0.1744     0.2841     0.3282     0.3723 
              0.4164     0.4606     0.5037     0.5212     0.5387 
              0.5562     0.5736     0.5856     0.5968     0.6080 
              0.6192     0.6304     0.6416     0.6528     0.6640 
              0.6752     0.6864     0.6976     0.7088     0.7200 
              0.7312     0.7424     0.7536     0.7648     0.7760 
              0.7872     0.7984     0.8096     0.8208     0.8320 
              0.8432     0.8544     0.8656     0.8768     0.8880 
              0.8992     0.9104     0.9216     0.9328     0.9440 
              0.9552     0.9664     0.9776     0.9888     1.0000 

  Transect NS_c6
  Area:  
              0.0017     0.0058     0.0118     0.0194     0.0288 
              0.0407     0.0553     0.0725     0.0916     0.1112 
              0.1313     0.1519     0.1731     0.1950     0.2174 
              0.2397     0.2620     0.2844     0.3067     0.3291 
              0.3514     0.3738     0.3961     0.4185     0.4408 
              0.4632     0.4855     0.5079     0.5302     0.5526 
              0.5750     0.5973     0.6197     0.6420     0.6644 
              0.6868     0.7091     0.7315     0.7539     0.7762 
              0.7986     0.8210     0.8434     0.8657     0.8881 
              0.9105     0.9329     0.9552     0.9776     1.0000 
  Hrad:  
              0.0173     0.0355     0.0547     0.0717     0.0849 
              0.0960     0.1088     0.1234     0.1468     0.1741 
              0.2003     0.2241     0.2474     0.2703     0.2969 
              0.3241     0.3506     0.3767     0.4022     0.4272 
              0.4517     0.4758     0.4994     0.5225     0.5452 
              0.5675     0.5893     0.6108     0.6318     0.6525 
              0.6729     0.6928     0.7124     0.7317     0.7506 
              0.7692     0.7875     0.8055     0.8232     0.8406 
              0.8577     0.8746     0.8911     0.9074     0.9235 
              0.9393     0.9548     0.9701     0.9852     1.0000 
  Width: 
              0.1386     0.2296     0.3008     0.3767     0.4736 
              0.5928     0.7105     0.8196     0.8688     0.8861 
              0.9057     0.9350     0.9644     0.9926     0.9981 
              0.9982     0.9982     0.9983     0.9984     0.9984 
              0.9985     0.9985     0.9986     0.9986     0.9987 
              0.9987     0.9988     0.9988     0.9989     0.9989 
              0.9990     0.9990     0.9991     0.9992     0.9992 
              0.9993     0.9993     0.9994     0.9994     0.9995 
              0.9995     0.9996     0.9996     0.9997     0.9997 
              0.9998     0.9998     0.9999     0.9999     1.0000 

  Transect NS_c7
  Area:  
              0.0016     0.0055     0.0142     0.0249     0.0368 
              0.0502     0.0651     0.0814     0.0992     0.1184 
              0.1388     0.1592     0.1798     0.2004     0.2211 
              0.2419     0.2628     0.2838     0.3049     0.3260 
              0.3472     0.3685     0.3899     0.4114     0.4330 
              0.4547     0.4764     0.4982     0.5201     0.5421 
              0.5642     0.5864     0.6086     0.6310     0.6534 
              0.6759     0.6985     0.7212     0.7439     0.7668 
              0.7897     0.8128     0.8359     0.8591     0.8823 
              0.9057     0.9291     0.9527     0.9763     1.0000 
  Hrad:  
              0.0175     0.0320     0.0417     0.0655     0.0857 
              0.1049     0.1232     0.1408     0.1581     0.1749 
              0.1995     0.2264     0.2528     0.2787     0.3042 
              0.3293     0.3540     0.3783     0.4022     0.4257 
              0.4488     0.4716     0.4941     0.5162     0.5380 
              0.5595     0.5806     0.6015     0.6221     0.6424 
              0.6625     0.6822     0.7017     0.7210     0.7400 
              0.7588     0.7774     0.7957     0.8138     0.8317 
              0.8494     0.8669     0.8842     0.9013     0.9182 
              0.9349     0.9514     0.9678     0.9840     1.0000 
  Width: 
              0.1138     0.2378     0.4258     0.4723     0.5338 
              0.5953     0.6569     0.7184     0.7799     0.8415 
              0.8598     0.8634     0.8670     0.8706     0.8742 
              0.8778     0.8814     0.8850     0.8886     0.8922 
              0.8958     0.8994     0.9030     0.9065     0.9101 
              0.9137     0.9173     0.9209     0.9245     0.9281 
              0.9317     0.9353     0.9389     0.9425     0.9461 
              0.9497     0.9533     0.9569     0.9605     0.9641 
              0.9677     0.9712     0.9748     0.9784     0.9820 
              0.9856     0.9892     0.9928     0.9964     1.0000 

  Transect NS_c8
  Area:  
              0.0036     0.0104     0.0183     0.0274     0.0375 
              0.0485     0.0607     0.0738     0.0888     0.1079 
              0.1288     0.1510     0.1734     0.1957     0.2180 
              0.2404     0.2627     0.2850     0.3074     0.3297 
              0.3520     0.3744     0.3967     0.4190     0.4414 
              0.4637     0.4860     0.5084     0.5307     0.5531 
              0.5754     0.5977     0.6201     0.6424     0.6648 
              0.6871     0.7095     0.7318     0.7541     0.7765 
              0.7988     0.8212     0.8435     0.8659     0.8882 
              0.9106     0.9329     0.9553     0.9776     1.0000 
  Hrad:  
              0.0166     0.0395     0.0609     0.0810     0.0999 
              0.1180     0.1353     0.1522     0.1390     0.1525 
              0.1669     0.1900     0.2166     0.2429     0.2688 
              0.2944     0.3196     0.3445     0.3691     0.3934 
              0.4174     0.4410     0.4644     0.4874     0.5102 
              0.5327     0.5549     0.5769     0.5986     0.6200 
              0.6411     0.6621     0.6827     0.7031     0.7233 
              0.7433     0.7630     0.7825     0.8017     0.8208 
              0.8396     0.8582     0.8767     0.8949     0.9129 
              0.9307     0.9483     0.9657     0.9830     1.0000 
  Width: 
              0.2735     0.3325     0.3812     0.4273     0.4733 
              0.5193     0.5654     0.6114     0.8063     0.8931 
              0.9745     0.9988     0.9988     0.9988     0.9989 
              0.9989     0.9989     0.9990     0.9990     0.9990 
              0.9991     0.9991     0.9991     0.9992     0.9992 
              0.9992     0.9992     0.9993     0.9993     0.9993 
              0.9994     0.9994     0.9994     0.9995     0.9995 
              0.9995     0.9996     0.9996     0.9996     0.9997 
              0.9997     0.9997     0.9998     0.9998     0.9998 
              0.9999     0.9999     0.9999     1.0000     1.0000 

  Transect NS_c9
  Area:  
              0.0040     0.0147     0.0282     0.0449     0.0635 
              0.0823     0.1014     0.1208     0.1404     0.1603 
              0.1805     0.2009     0.2215     0.2424     0.2633 
              0.2843     0.3052     0.3262     0.3472     0.3682 
              0.3892     0.4102     0.4312     0.4522     0.4732 
              0.4942     0.5153     0.5363     0.5573     0.5784 
              0.5994     0.6204     0.6415     0.6625     0.6836 
              0.7047     0.7257     0.7468     0.7679     0.7890 
              0.8100     0.8311     0.8522     0.8733     0.8944 
              0.9155     0.9366     0.9578     0.9789     1.0000 
  Hrad:  
              0.0128     0.0291     0.0513     0.0623     0.0868 
              0.1108     0.1345     0.1578     0.1808     0.2034 
              0.2257     0.2477     0.2694     0.2926     0.3155 
              0.3386     0.3615     0.3842     0.4067     0.4289 
              0.4509     0.4726     0.4942     0.5155     0.5365 
              0.5574     0.5780     0.5984     0.6186     0.6386 
              0.6584     0.6780     0.6974     0.7167     0.7357 
              0.7545     0.7732     0.7916     0.8099     0.8280 
              0.8460     0.8637     0.8813     0.8988     0.9160 
              0.9331     0.9501     0.9669     0.9835     1.0000 
  Width: 
              0.3786     0.6141     0.6685     0.8736     0.8859 
              0.8983     0.9106     0.9229     0.9353     0.9476 
              0.9599     0.9723     0.9846     0.9882     0.9916 
              0.9929     0.9931     0.9933     0.9935     0.9937 
              0.9939     0.9942     0.9944     0.9946     0.9948 
              0.9950     0.9952     0.9954     0.9956     0.9958 
              0.9960     0.9962     0.9964     0.9967     0.9969 
              0.9971     0.9973     0.9975     0.9977     0.9979 
              0.9981     0.9983     0.9985     0.9987     0.9990 
              0.9992     0.9994     0.9996     0.9998     1.0000 

  Transect NS_c10
  Area:  
              0.0003     0.0013     0.0029     0.0053     0.0086 
              0.0137     0.0223     0.0347     0.0482     0.0623 
              0.0771     0.0926     0.1098     0.1308     0.1522 
              0.1742     0.1967     0.2198     0.2433     0.2671 
              0.2910     0.3149     0.3389     0.3630     0.3871 
              0.4113     0.4355     0.4597     0.4839     0.5082 
              0.5325     0.5569     0.5812     0.6056     0.6301 
              0.6545     0.6790     0.7035     0.7281     0.7527 
              0.7773     0.8019     0.8266     0.8512     0.8760 
              0.9007     0.9255     0.9503     0.9751     1.0000 
  Hrad:  
              0.0169     0.0335     0.0490     0.0642     0.0713 
              0.0772     0.0688     0.0990     0.1273     0.1547 
              0.1812     0.2069     0.2210     0.2386     0.2575 
              0.2770     0.2966     0.3162     0.3359     0.3574 
              0.3793     0.4012     0.4233     0.4455     0.4676 
              0.4898     0.5121     0.5343     0.5564     0.5784 
              0.6004     0.6223     0.6441     0.6658     0.6874 
              0.7089     0.7304     0.7517     0.7729     0.7941 
              0.8151     0.8360     0.8568     0.8776     0.8982 
              0.9188     0.9392     0.9596     0.9798     1.0000 
  Width: 
              0.0253     0.0511     0.0807     0.1126     0.1658 
              0.2447     0.4658     0.5217     0.5551     0.5826 
              0.6085     0.6315     0.8272     0.8530     0.8738 
              0.8946     0.9154     0.9362     0.9555     0.9580 
              0.9605     0.9631     0.9656     0.9681     0.9706 
              0.9720     0.9731     0.9743     0.9755     0.9767 
              0.9778     0.9790     0.9802     0.9813     0.9825 
              0.9837     0.9848     0.9860     0.9872     0.9883 
              0.9895     0.9907     0.9918     0.9930     0.9942 
              0.9953     0.9965     0.9977     0.9988     1.0000 

  Transect NS_c11
  Area:  
              0.0013     0.0047     0.0091     0.0141     0.0197 
              0.0258     0.0335     0.0451     0.0582     0.0717 
              0.0855     0.0996     0.1141     0.1289     0.1441 
              0.1596     0.1759     0.1952     0.2175     0.2405 
              0.2640     0.2878     0.3119     0.3363     0.3611 
              0.3860     0.4109     0.4359     0.4609     0.4860 
              0.5112     0.5364     0.5617     0.5870     0.6124 
              0.6379     0.6634     0.6889     0.7145     0.7402 
              0.7659     0.7917     0.8175     0.8434     0.8694 
              0.8954     0.9215     0.9476     0.9738     1.0000 
  Hrad:  
              0.0178     0.0410     0.0660     0.0910     0.1156 
              0.1388     0.1448     0.1483     0.1706     0.1948 
              0.2194     0.2441     0.2687     0.2930     0.3169 
              0.3405     0.3489     0.3515     0.3615     0.3790 
              0.3972     0.4160     0.4351     0.4544     0.4741 
              0.4953     0.5167     0.5383     0.5599     0.5816 
              0.6032     0.6249     0.6465     0.6680     0.6895 
              0.7109     0.7322     0.7534     0.7746     0.7956 
              0.8165     0.8374     0.8581     0.8787     0.8992 
              0.9196     0.9399     0.9600     0.9801     1.0000 
  Width: 
              0.0965     0.1512     0.1799     0.2027     0.2221 
              0.2415     0.3773     0.4902     0.5062     0.5191 
              0.5320     0.5449     0.5578     0.5707     0.5836 
              0.5965     0.6733     0.7979     0.8708     0.8861 
              0.9001     0.9121     0.9240     0.9360     0.9462 
              0.9483     0.9505     0.9526     0.9548     0.9569 
              0.9591     0.9613     0.9634     0.9656     0.9677 
              0.9699     0.9720     0.9742     0.9763     0.9785 
              0.9806     0.9828     0.9849     0.9871     0.9892 
              0.9914     0.9935     0.9957     0.9978     1.0000 

  Transect NS_c12
  Area:  
              0.0021     0.0068     0.0141     0.0237     0.0350 
              0.0482     0.0664     0.0872     0.1081     0.1291 
              0.1502     0.1714     0.1926     0.2140     0.2354 
              0.2570     0.2786     0.3003     0.3220     0.3438 
              0.3655     0.3873     0.4090     0.4308     0.4526 
              0.4744     0.4962     0.5180     0.5398     0.5616 
              0.5835     0.6053     0.6272     0.6490     0.6709 
              0.6928     0.7147     0.7366     0.7585     0.7804 
              0.8023     0.8242     0.8462     0.8681     0.8901 
              0.9120     0.9340     0.9560     0.9780     1.0000 
  Hrad:  
              0.0131     0.0260     0.0374     0.0510     0.0655 
              0.0713     0.0724     0.0949     0.1174     0.1398 
              0.1621     0.1843     0.2064     0.2285     0.2505 
              0.2724     0.2942     0.3160     0.3377     0.3595 
              0.3812     0.4029     0.4245     0.4461     0.4677 
              0.4893     0.5108     0.5323     0.5538     0.5752 
              0.5967     0.6181     0.6395     0.6608     0.6822 
              0.7035     0.7248     0.7461     0.7673     0.7886 
              0.8098     0.8310     0.8522     0.8733     0.8945 
              0.9156     0.9367     0.9578     0.9789     1.0000 
  Width: 
              0.1658     0.2704     0.3878     0.4777     0.5500 
              0.6957     0.9442     0.9482     0.9522     0.9562 
              0.9602     0.9643     0.9683     0.9723     0.9763 
              0.9803     0.9843     0.9873     0.9877     0.9881 
              0.9885     0.9889     0.9893     0.9897     0.9901 
              0.9905     0.9909     0.9913     0.9917     0.9921 
              0.9925     0.9929     0.9933     0.9937     0.9941 
              0.9944     0.9948     0.9952     0.9956     0.9960 
              0.9964     0.9968     0.9972     0.9976     0.9980 
              0.9984     0.9988     0.9992     0.9996     1.0000 

  Transect NS_c13
  Area:  
              0.0029     0.0073     0.0129     0.0205     0.0324 
              0.0454     0.0595     0.0748     0.0924     0.1125 
              0.1345     0.1567     0.1789     0.2010     0.2232 
              0.2454     0.2676     0.2898     0.3120     0.3341 
              0.3563     0.3785     0.4007     0.4229     0.4451 
              0.4673     0.4895     0.5117     0.5338     0.5560 
              0.5782     0.6004     0.6226     0.6448     0.6670 
              0.6892     0.7114     0.7336     0.7558     0.7780 
              0.8002     0.8224     0.8446     0.8668     0.8890 
              0.9112     0.9334     0.9556     0.9778     1.0000 
  Hrad:  
              0.0184     0.0367     0.0512     0.0468     0.0648 
              0.0836     0.1012     0.1145     0.1225     0.1316 
              0.1511     0.1755     0.1997     0.2238     0.2477 
              0.2715     0.2951     0.3186     0.3419     0.3651 
              0.3881     0.4110     0.4338     0.4564     0.4789 
              0.5012     0.5235     0.5455     0.5675     0.5893 
              0.6110     0.6326     0.6540     0.6753     0.6965 
              0.7176     0.7385     0.7593     0.7800     0.8006 
              0.8211     0.8414     0.8616     0.8817     0.9017 
              0.9216     0.9414     0.9610     0.9806     1.0000 
  Width: 
              0.1757     0.2237     0.2834     0.4924     0.5618 
              0.6107     0.6608     0.7344     0.8478     0.9612 
              0.9989     0.9989     0.9989     0.9990     0.9990 
              0.9990     0.9990     0.9991     0.9991     0.9991 
              0.9992     0.9992     0.9992     0.9993     0.9993 
              0.9993     0.9993     0.9994     0.9994     0.9994 
              0.9995     0.9995     0.9995     0.9995     0.9996 
              0.9996     0.9996     0.9997     0.9997     0.9997 
              0.9997     0.9998     0.9998     0.9998     0.9999 
              0.9999     0.9999     0.9999     1.0000     1.0000 

  Transect NS_c14
  Area:  
              0.0020     0.0075     0.0157     0.0257     0.0365 
              0.0483     0.0621     0.0764     0.0911     0.1060 
              0.1212     0.1367     0.1525     0.1687     0.1859 
              0.2044     0.2241     0.2450     0.2662     0.2876 
              0.3091     0.3308     0.3526     0.3746     0.3967 
              0.4190     0.4415     0.4641     0.4868     0.5097 
              0.5328     0.5560     0.5794     0.6029     0.6266 
              0.6504     0.6744     0.6985     0.7228     0.7472 
              0.7718     0.7965     0.8214     0.8465     0.8717 
              0.8970     0.9226     0.9482     0.9740     1.0000 
  Hrad:  
              0.0131     0.0285     0.0434     0.0651     0.0855 
              0.0983     0.1144     0.1377     0.1606     0.1830 
              0.2050     0.2266     0.2478     0.2705     0.2941 
              0.3156     0.3355     0.3544     0.3741     0.3943 
              0.4148     0.4355     0.4564     0.4773     0.4983 
              0.5192     0.5401     0.5610     0.5819     0.6026 
              0.6233     0.6440     0.6645     0.6850     0.7053 
              0.7256     0.7458     0.7659     0.7859     0.8058 
              0.8256     0.8454     0.8650     0.8846     0.9040 
              0.9234     0.9427     0.9619     0.9810     1.0000 
  Width: 
              0.1521     0.2646     0.3662     0.3975     0.4287 
              0.4942     0.5450     0.5562     0.5674     0.5787 
              0.5899     0.6011     0.6123     0.6381     0.6857 
              0.7333     0.7810     0.8119     0.8178     0.8236 
              0.8295     0.8354     0.8413     0.8471     0.8530 
              0.8589     0.8648     0.8707     0.8765     0.8824 
              0.8883     0.8942     0.9001     0.9059     0.9118 
              0.9177     0.9236     0.9295     0.9353     0.9412 
              0.9471     0.9530     0.9588     0.9647     0.9706 
              0.9765     0.9824     0.9882     0.9941     1.0000 

  Transect NS_c15
  Area:  
              0.0012     0.0044     0.0096     0.0166     0.0256 
              0.0366     0.0504     0.0664     0.0838     0.1024 
              0.1225     0.1438     0.1660     0.1882     0.2105 
              0.2327     0.2550     0.2773     0.2996     0.3220 
              0.3443     0.3667     0.3891     0.4115     0.4339 
              0.4563     0.4788     0.5013     0.5238     0.5463 
              0.5688     0.5913     0.6139     0.6365     0.6591 
              0.6817     0.7043     0.7269     0.7496     0.7723 
              0.7950     0.8177     0.8404     0.8632     0.8859 
              0.9087     0.9315     0.9543     0.9772     1.0000 
  Hrad:  
              0.0117     0.0240     0.0358     0.0474     0.0589 
              0.0690     0.0755     0.0911     0.1064     0.1211 
              0.1354     0.1494     0.1708     0.1936     0.2164 
              0.2392     0.2619     0.2847     0.3074     0.3301 
              0.3527     0.3754     0.3980     0.4206     0.4431 
              0.4657     0.4882     0.5107     0.5332     0.5556 
              0.5781     0.6005     0.6228     0.6452     0.6676 
              0.6899     0.7122     0.7344     0.7567     0.7789 
              0.8011     0.8233     0.8455     0.8676     0.8897 
              0.9118     0.9339     0.9560     0.9780     1.0000 
  Width: 
              0.0998     0.1837     0.2676     0.3514     0.4353 
              0.5310     0.6689     0.7297     0.7879     0.8460 
              0.9042     0.9624     0.9723     0.9730     0.9738 
              0.9745     0.9753     0.9760     0.9768     0.9775 
              0.9783     0.9790     0.9798     0.9805     0.9813 
              0.9820     0.9828     0.9835     0.9843     0.9850 
              0.9858     0.9865     0.9873     0.9880     0.9888 
              0.9895     0.9903     0.9910     0.9918     0.9925 
              0.9933     0.9940     0.9948     0.9955     0.9963 
              0.9970     0.9978     0.9985     0.9993     1.0000 

  Transect NS_c1
  Area:  
              0.0043     0.0125     0.0232     0.0348     0.0468 
              0.0593     0.0722     0.0857     0.1006     0.1167 
              0.1331     0.1500     0.1674     0.1853     0.2038 
              0.2228     0.2426     0.2639     0.2865     0.3095 
              0.3325     0.3555     0.3785     0.4015     0.4245 
              0.4475     0.4705     0.4935     0.5166     0.5396 
              0.5626     0.5856     0.6086     0.6316     0.6546 
              0.6776     0.7007     0.7237     0.7467     0.7697 
              0.7927     0.8158     0.8388     0.8618     0.8848 
              0.9079     0.9309     0.9539     0.9770     1.0000 
  Hrad:  
              0.0168     0.0387     0.0600     0.0870     0.1129 
              0.1378     0.1619     0.1851     0.2063     0.2270 
              0.2481     0.2690     0.2896     0.3099     0.3298 
              0.3495     0.3684     0.3852     0.3920     0.4112 
              0.4309     0.4508     0.4710     0.4912     0.5115 
              0.5319     0.5523     0.5726     0.5929     0.6131 
              0.6333     0.6534     0.6734     0.6934     0.7132 
              0.7330     0.7527     0.7723     0.7918     0.8112 
              0.8305     0.8497     0.8688     0.8878     0.9067 
              0.9256     0.9443     0.9630     0.9815     1.0000 
  Width: 
              0.3229     0.4062     0.4905     0.5112     0.5318 
              0.5524     0.5730     0.5937     0.6879     0.7055 
              0.7230     0.7438     0.7668     0.7898     0.8129 
              0.8359     0.8912     0.9563     0.9982     0.9983 
              0.9984     0.9984     0.9985     0.9985     0.9986 
              0.9986     0.9987     0.9987     0.9988     0.9989 
              0.9989     0.9990     0.9990     0.9991     0.9991 
              0.9992     0.9993     0.9993     0.9994     0.9994 
              0.9995     0.9995     0.9996     0.9997     0.9997 
              0.9998     0.9998     0.9999     0.9999     1.0000 

  Transect NS_c0
  Area:  
              0.0054     0.0155     0.0266     0.0382     0.0503 
              0.0628     0.0758     0.0893     0.1047     0.1208 
              0.1372     0.1541     0.1715     0.1895     0.2079 
              0.2269     0.2469     0.2683     0.2910     0.3139 
              0.3367     0.3596     0.3825     0.4053     0.4282 
              0.4510     0.4739     0.4967     0.5196     0.5425 
              0.5653     0.5882     0.6111     0.6339     0.6568 
              0.6797     0.7025     0.7254     0.7483     0.7712 
              0.7940     0.8169     0.8398     0.8627     0.8856 
              0.9085     0.9313     0.9542     0.9771     1.0000 
  Hrad:  
              0.0169     0.0433     0.0712     0.0987     0.1251 
              0.1505     0.1750     0.1985     0.2194     0.2404 
              0.2616     0.2826     0.3031     0.3233     0.3431 
              0.3625     0.3808     0.3969     0.4044     0.4231 
              0.4422     0.4616     0.4812     0.5009     0.5207 
              0.5406     0.5605     0.5803     0.6001     0.6199 
              0.6397     0.6593     0.6789     0.6985     0.7179 
              0.7373     0.7566     0.7758     0.7950     0.8140 
              0.8330     0.8519     0.8707     0.8894     0.9080 
              0.9266     0.9451     0.9635     0.9818     1.0000 
  Width: 
              0.4173     0.4680     0.4966     0.5171     0.5376 
              0.5581     0.5786     0.5991     0.6924     0.7099 
              0.7273     0.7493     0.7722     0.7950     0.8179 
              0.8408     0.9047     0.9693     0.9982     0.9983 
              0.9984     0.9984     0.9985     0.9985     0.9986 
              0.9986     0.9987     0.9988     0.9988     0.9989 
              0.9989     0.9990     0.9990     0.9991     0.9992 
              0.9992     0.9993     0.9993     0.9994     0.9994 
              0.9995     0.9995     0.9996     0.9997     0.9997 
              0.9998     0.9998     0.9999     0.9999     1.0000 

  Transect NS_P6
  Area:  
              0.0043     0.0132     0.0302     0.0498     0.0705 
              0.0911     0.1118     0.1324     0.1531     0.1737 
              0.1944     0.2150     0.2357     0.2563     0.2770 
              0.2976     0.3183     0.3389     0.3596     0.3802 
              0.4009     0.4216     0.4422     0.4629     0.4835 
              0.5042     0.5248     0.5455     0.5661     0.5868 
              0.6075     0.6281     0.6488     0.6694     0.6901 
              0.7107     0.7314     0.7521     0.7727     0.7934 
              0.8140     0.8347     0.8554     0.8760     0.8967 
              0.9173     0.9380     0.9587     0.9793     1.0000 
  Hrad:  
              0.0364     0.0496     0.0708     0.0937     0.1191 
              0.1446     0.1698     0.1946     0.2188     0.2425 
              0.2657     0.2886     0.3110     0.3330     0.3547 
              0.3761     0.3972     0.4180     0.4386     0.4589 
              0.4790     0.4988     0.5185     0.5379     0.5572 
              0.5763     0.5953     0.6141     0.6327     0.6512 
              0.6696     0.6879     0.7060     0.7240     0.7419 
              0.7597     0.7774     0.7950     0.8126     0.8300 
              0.8473     0.8646     0.8817     0.8988     0.9159 
              0.9328     0.9497     0.9665     0.9833     1.0000 
  Width: 
              0.2370     0.7458     0.9023     0.9981     0.9993 
              0.9993     0.9993     0.9993     0.9994     0.9994 
              0.9994     0.9994     0.9994     0.9994     0.9994 
              0.9995     0.9995     0.9995     0.9995     0.9995 
              0.9995     0.9996     0.9996     0.9996     0.9996 
              0.9996     0.9996     0.9997     0.9997     0.9997 
              0.9997     0.9997     0.9997     0.9997     0.9998 
              0.9998     0.9998     0.9998     0.9998     0.9998 
              0.9999     0.9999     0.9999     0.9999     0.9999 
              0.9999     1.0000     1.0000     1.0000     1.0000 

  Transect NS_.2
  Area:  
              0.0102     0.0283     0.0482     0.0684     0.0886 
              0.1089     0.1291     0.1494     0.1696     0.1898 
              0.2101     0.2303     0.2506     0.2708     0.2910 
              0.3113     0.3315     0.3518     0.3720     0.3923 
              0.4125     0.4328     0.4530     0.4733     0.4935 
              0.5138     0.5340     0.5543     0.5745     0.5948 
              0.6150     0.6353     0.6556     0.6758     0.6961 
              0.7163     0.7366     0.7568     0.7771     0.7974 
              0.8176     0.8379     0.8581     0.8784     0.8987 
              0.9189     0.9392     0.9595     0.9797     1.0000 
  Hrad:  
              0.0306     0.0708     0.1139     0.1572     0.1981 
              0.2369     0.2736     0.3085     0.3416     0.3732 
              0.4032     0.4319     0.4593     0.4854     0.5105 
              0.5345     0.5575     0.5796     0.6008     0.6211 
              0.6407     0.6596     0.6778     0.6953     0.7122 
              0.7285     0.7443     0.7595     0.7742     0.7885 
              0.8022     0.8156     0.8285     0.8411     0.8533 
              0.8651     0.8765     0.8877     0.8985     0.9090 
              0.9192     0.9292     0.9389     0.9483     0.9575 
              0.9664     0.9751     0.9836     0.9919     1.0000 
  Width: 
              0.8094     0.9610     0.9985     0.9985     0.9985 
              0.9986     0.9986     0.9986     0.9987     0.9987 
              0.9987     0.9988     0.9988     0.9988     0.9989 
              0.9989     0.9989     0.9990     0.9990     0.9990 
              0.9991     0.9991     0.9991     0.9992     0.9992 
              0.9992     0.9993     0.9993     0.9993     0.9994 
              0.9994     0.9994     0.9995     0.9995     0.9995 
              0.9995     0.9996     0.9996     0.9996     0.9997 
              0.9997     0.9997     0.9998     0.9998     0.9998 
              0.9999     0.9999     0.9999     1.0000     1.0000 

  Transect NS_.3
  Area:  
              0.0164     0.0363     0.0564     0.0764     0.0965 
              0.1166     0.1366     0.1567     0.1768     0.1968 
              0.2169     0.2370     0.2571     0.2771     0.2972 
              0.3173     0.3374     0.3574     0.3775     0.3976 
              0.4177     0.4377     0.4578     0.4779     0.4980 
              0.5180     0.5381     0.5582     0.5783     0.5983 
              0.6184     0.6385     0.6586     0.6787     0.6987 
              0.7188     0.7389     0.7590     0.7791     0.7992 
              0.8192     0.8393     0.8594     0.8795     0.8996 
              0.9197     0.9397     0.9598     0.9799     1.0000 
  Hrad:  
              0.0252     0.0480     0.0712     0.0940     0.1164 
              0.1384     0.1600     0.1814     0.2025     0.2235 
              0.2442     0.2648     0.2853     0.3056     0.3258 
              0.3459     0.3659     0.3859     0.4057     0.4255 
              0.4452     0.4648     0.4844     0.5039     0.5234 
              0.5429     0.5622     0.5816     0.6009     0.6202 
              0.6394     0.6586     0.6778     0.6969     0.7160 
              0.7351     0.7541     0.7732     0.7922     0.8112 
              0.8301     0.8491     0.8680     0.8869     0.9058 
              0.9247     0.9435     0.9624     0.9812     1.0000 
  Width: 
              0.9703     0.9991     0.9992     0.9992     0.9992 
              0.9992     0.9992     0.9992     0.9993     0.9993 
              0.9993     0.9993     0.9993     0.9994     0.9994 
              0.9994     0.9994     0.9994     0.9994     0.9995 
              0.9995     0.9995     0.9995     0.9995     0.9995 
              0.9996     0.9996     0.9996     0.9996     0.9996 
              0.9997     0.9997     0.9997     0.9997     0.9997 
              0.9997     0.9998     0.9998     0.9998     0.9998 
              0.9998     0.9999     0.9999     0.9999     0.9999 
              0.9999     0.9999     1.0000     1.0000     1.0000 

  Transect NS_P5b
  Area:  
              0.0042     0.0147     0.0285     0.0446     0.0645 
              0.0852     0.1060     0.1268     0.1476     0.1684 
              0.1892     0.2100     0.2307     0.2515     0.2723 
              0.2931     0.3139     0.3347     0.3555     0.3763 
              0.3970     0.4178     0.4386     0.4594     0.4802 
              0.5010     0.5218     0.5426     0.5634     0.5841 
              0.6049     0.6257     0.6465     0.6673     0.6881 
              0.7089     0.7297     0.7505     0.7713     0.7921 
              0.8129     0.8336     0.8544     0.8752     0.8960 
              0.9168     0.9376     0.9584     0.9792     1.0000 
  Hrad:  
              0.0440     0.0692     0.0967     0.1252     0.1458 
              0.1758     0.2059     0.2351     0.2635     0.2909 
              0.3174     0.3430     0.3678     0.3918     0.4152 
              0.4378     0.4599     0.4813     0.5022     0.5227 
              0.5426     0.5621     0.5812     0.5999     0.6183 
              0.6362     0.6539     0.6713     0.6884     0.7052 
              0.7217     0.7380     0.7541     0.7699     0.7855 
              0.8009     0.8162     0.8312     0.8461     0.8608 
              0.8753     0.8897     0.9040     0.9181     0.9320 
              0.9459     0.9596     0.9732     0.9866     1.0000 
  Width: 
              0.3203     0.5944     0.7283     0.8173     0.9976 
              0.9995     0.9995     0.9996     0.9996     0.9996 
              0.9996     0.9996     0.9996     0.9996     0.9996 
              0.9996     0.9997     0.9997     0.9997     0.9997 
              0.9997     0.9997     0.9997     0.9997     0.9997 
              0.9997     0.9998     0.9998     0.9998     0.9998 
              0.9998     0.9998     0.9998     0.9998     0.9998 
              0.9999     0.9999     0.9999     0.9999     0.9999 
              0.9999     0.9999     0.9999     0.9999     0.9999 
              1.0000     1.0000     1.0000     1.0000     1.0000 
  
  
  ****************
  Analysis Options
  ****************
  Flow Units ............... CMS
  Process Models:
    Rainfall/Runoff ........ NO
    RDII ................... NO
    Snowmelt ............... NO
    Groundwater ............ NO
    Flow Routing ........... YES
    Ponding Allowed ........ NO
    Water Quality .......... NO
  Flow Routing Method ...... DYNWAVE
  Surcharge Method ......... EXTRAN
  Starting Date ............ 01/01/1996 00:00:00
  Ending Date .............. 01/01/1996 06:26:40
  Antecedent Dry Days ...... 0.0
  Report Time Step ......... 00:00:20
  Routing Time Step ........ 20.00 sec
  Variable Time Step ....... YES
  Maximum Trials ........... 8
  Number of Threads ........ 1
  Head Tolerance ........... 0.001524 m
  
  
  **************************        Volume        Volume
  Flow Routing Continuity        hectare-m      10^6 ltr
  **************************     ---------     ---------
  Dry Weather Inflow .......         0.000         0.000
  Wet Weather Inflow .......         0.000         0.000
  Groundwater Inflow .......         0.000         0.000
  RDII Inflow ..............         0.000         0.000
  External Inflow ..........      1669.915     16699.324
  External Outflow .........      1577.657     15776.734
  Flooding Loss ............         0.000         0.000
  Evaporation Loss .........         0.000         0.000
  Exfiltration Loss ........         0.000         0.000
  Initial Stored Volume ....        24.461       244.609
  Final Stored Volume ......       117.708      1177.088
  Continuity Error (%) .....        -0.058
  
  
  ***************************
  Time-Step Critical Elements
  ***************************
  Link P5 (51.21%)
  Link P5.1 (41.83%)
  Link P2 (6.89%)
  
  
  ********************************
  Highest Flow Instability Indexes
  ********************************
  Link c0 (4)
  Link c9 (4)
  Link P5 (2)
  Link P5.1 (2)
  
  
  *********************************
  Most Frequent Nonconverging Nodes
  *********************************
  Convergence obtained at all time steps.
  
  
  *************************
  Routing Time Step Summary
  *************************
  Minimum Time Step           :     0.15 sec
  Average Time Step           :     3.21 sec
  Maximum Time Step           :    20.00 sec
  % of Time in Steady State   :     0.00
  Average Iterations per Step :     2.00
  % of Steps Not Converging   :     0.00
  Time Step Frequencies       :
     20.000 -  9.564 sec      :     0.06 %
      9.564 -  4.573 sec      :     0.48 %
      4.573 -  2.187 sec      :    99.42 %
      2.187 -  1.046 sec      :     0.04 %
      1.046 -  0.500 sec      :     0.00 %
  
  
  ******************
  Node Depth Summary
  ******************
  
  ---------------------------------------------------------------------------------
                                 Average  Maximum  Maximum  Time of Max    Reported
                                   Depth    Depth      HGL   Occurrence   Max Depth
  Node                 Type       Meters   Meters   Meters  days hr:min      Meters
  ---------------------------------------------------------------------------------
  10926                JUNCTION     5.57     8.75     9.15     0  02:07        8.75
  10856                JUNCTION     5.42     8.65     9.00     0  02:07        8.65
  10801                JUNCTION     4.49     6.21     6.51     0  02:09        6.21
  10749                JUNCTION     4.51     6.20     6.45     0  02:09        6.20
  10619                JUNCTION     4.54     6.23     6.43     0  02:10        6.23
  10535                JUNCTION     4.52     6.19     6.37     0  02:10        6.19
  10460                JUNCTION     4.30     5.99     6.16     0  02:10        5.99
  10350                JUNCTION     4.37     6.05     6.12     0  02:11        6.05
  10205                JUNCTION     4.33     5.99     6.04     0  02:11        5.99
  10155                JUNCTION     3.56     5.50     5.50     0  02:12        5.50
  9600                 JUNCTION     4.96     6.89     5.22     0  02:13        6.89
  9000                 JUNCTION     5.39     7.31     4.88     0  02:12        7.31
  8650                 JUNCTION     6.33     8.25     4.89     0  02:13        8.25
  8400                 JUNCTION     5.94     7.75     4.57     0  02:11        7.75
  8250                 JUNCTION     4.68     6.43     4.39     0  02:10        6.43
  7700                 JUNCTION     5.57     7.26     4.01     0  02:08        7.26
  7580                 JUNCTION     4.75     6.38     3.79     0  02:09        6.38
  7400                 JUNCTION     3.75     5.26     3.38     0  02:10        5.26
  7120                 JUNCTION     5.32     6.84     3.32     0  02:11        6.84
  7000                 JUNCTION     5.71     7.23     3.29     0  02:11        7.23
  6900                 JUNCTION     5.36     6.80     3.09     0  02:11        6.80
  6250                 JUNCTION     3.63     4.55     1.68     0  02:14        4.55
  5990                 JUNCTION     4.36     5.12     1.35     0  02:18        5.12
  5500                 JUNCTION     4.95     5.44     0.86     0  02:25        5.44
  10000                JUNCTION     4.48     6.48     5.48     0  02:12        6.48
  10320                JUNCTION     4.37     6.05     6.12     0  02:11        6.05
  5000                 OUTFALL      4.90     4.90     0.00     0  00:00        4.90
  10976                STORAGE      5.48     8.61     9.17     0  02:07        8.61
  
  
  *******************
  Node Inflow Summary
  *******************
  
  -------------------------------------------------------------------------------------------------
                                  Maximum  Maximum                  Lateral       Total        Flow
                                  Lateral    Total  Time of Max      Inflow      Inflow     Balance
                                   Inflow   Inflow   Occurrence      Volume      Volume       Error
  Node                 Type           CMS      CMS  days hr:min    10^6 ltr    10^6 ltr     Percent
  -------------------------------------------------------------------------------------------------
  10926                JUNCTION     0.000  916.443     0  02:06           0    9.72e+03       0.038
  10856                JUNCTION     0.000  916.317     0  02:06           0    9.72e+03       0.027
  10801                JUNCTION     0.000  916.251     0  02:06           0    9.72e+03       0.021
  10749                JUNCTION     0.000  916.219     0  02:06           0    9.72e+03       0.044
  10619                JUNCTION     0.000  916.134     0  02:07           0    9.71e+03       0.058
  10535                JUNCTION     0.000  916.025     0  02:07           0    9.71e+03       0.063
  10460                JUNCTION    93.000  931.684     0  02:07         407    1.01e+04       0.050
  10350                JUNCTION     0.000  931.478     0  02:08           0    1.01e+04       0.071
  10205                JUNCTION     0.000  935.067     0  02:09           0    1.02e+04       0.087
  10155                JUNCTION     0.000  934.981     0  02:09           0    1.02e+04      -0.003
  9600                 JUNCTION     0.000  934.527     0  02:11           0    1.02e+04       0.461
  9000                 JUNCTION     0.000  934.398     0  02:15           0    1.02e+04       0.494
  8650                 JUNCTION     0.000  935.990     0  02:18           0    1.02e+04       0.397
  8400                 JUNCTION   118.993  965.101     0  02:14         687    1.08e+04       0.197
  8250                 JUNCTION     0.000  965.402     0  02:15           0    1.07e+04       0.218
  7700                 JUNCTION   191.993 1047.165     0  02:01    1.21e+03    1.19e+04       0.329
  7580                 JUNCTION     0.000 1046.281     0  02:02           0    1.18e+04       0.185
  7400                 JUNCTION     0.000 1045.749     0  02:03           0    1.18e+04       0.196
  7120                 JUNCTION     0.000 1045.148     0  02:08           0    1.18e+04       0.401
  7000                 JUNCTION     0.000 1044.879     0  02:09           0    1.18e+04       0.211
  6900                 JUNCTION     0.000 1044.718     0  02:09           0    1.19e+04       0.707
  6250                 JUNCTION     0.000 1044.466     0  02:11           0     1.2e+04       0.469
  5990                 JUNCTION     0.000 1043.845     0  02:12           0    1.21e+04       0.770
  5500                 JUNCTION   355.994 1380.808     0  02:24    4.08e+03    1.62e+04       1.009
  10000                JUNCTION     0.000  934.841     0  02:09           0    1.02e+04       0.214
  10320                JUNCTION    26.992  935.169     0  02:08         112    1.02e+04       0.078
  5000                 OUTFALL      0.000 1381.225     0  02:26           0    1.61e+04       0.000
  10976                STORAGE   1010.995 1010.995     0  01:24    9.84e+03     9.9e+03       0.018
  
  
  **********************
  Node Surcharge Summary
  **********************
  
  No nodes were surcharged.
  
  
  *********************
  Node Flooding Summary
  *********************
  
  No nodes were flooded.
  
  
  **********************
  Storage Volume Summary
  **********************
  
  ------------------------------------------------------------------------------------------------
                         Average    Avg   Evap  Exfil     Maximum    Max    Time of Max    Maximum
                          Volume   Pcnt   Pcnt   Pcnt      Volume   Pcnt     Occurrence    Outflow
  Storage Unit           1000 mł   Full   Loss   Loss     1000 mł   Full    days hr:min        CMS
  ------------------------------------------------------------------------------------------------
  10976                  516.654    0.1    0.0    0.0     986.901    0.1       0  02:07    916.443
  
  
  ***********************
  Outfall Loading Summary
  ***********************
  
  -----------------------------------------------------------
                         Flow       Avg       Max       Total
                         Freq      Flow      Flow      Volume
  Outfall Node           Pcnt       CMS       CMS    10^6 ltr
  -----------------------------------------------------------
  5000                 100.00   757.279  1381.225   16141.901
  -----------------------------------------------------------
  System               100.00   757.279  1381.225   16141.901
  
  
  ********************
  Link Flow Summary
  ********************
  
  -----------------------------------------------------------------------------
                                 Maximum  Time of Max   Maximum    Max/    Max/
                                  |Flow|   Occurrence   |Veloc|    Full    Full
  Link                 Type          CMS  days hr:min     m/sec    Flow   Depth
  -----------------------------------------------------------------------------
  P13.1                CHANNEL     0.000     0  00:00      0.00    0.00    0.00
  P13                  CONDUIT   916.251     0  02:06      6.36    7.06    1.00
  P2.1                 CHANNEL   934.835     0  02:09      4.33    0.14    0.04
  P2                   CONDUIT     0.302     0  00:23      1.25    6.83    1.00
  P17                  CHANNEL   916.443     0  02:06      1.85    0.01    0.09
  P15                  CHANNEL   916.317     0  02:06      2.93    0.02    0.09
  P12                  CHANNEL   916.219     0  02:06      3.71    0.01    0.06
  P11                  CHANNEL   916.134     0  02:07      3.21    0.01    0.06
  P10                  CHANNEL   916.025     0  02:07      2.97    0.01    0.06
  c2                   CHANNEL   934.398     0  02:15      1.55    0.04    0.32
  c3                   CHANNEL   935.990     0  02:18      1.71    0.02    0.32
  c4                   CHANNEL   936.888     0  02:20      2.75    0.07    0.29
  c5                   CHANNEL   965.402     0  02:15      1.97    0.02    0.29
  c6                   CHANNEL   966.151     0  02:16      2.37    0.04    0.24
  c7                   CHANNEL  1046.281     0  02:02      2.32    0.03    0.27
  c8                   CHANNEL  1045.749     0  02:03      2.25    0.02    0.21
  c9                   CHANNEL  1045.148     0  02:08      1.40    0.03    0.28
  c10                  CHANNEL  1044.879     0  02:09      2.15    0.03    0.29
  c11                  CHANNEL  1044.718     0  02:09      2.58    0.05    0.29
  c12                  CHANNEL  1044.466     0  02:11      2.25    0.07    0.24
  c13                  CHANNEL  1043.845     0  02:12      2.74    0.02    0.17
  c14                  CHANNEL  1043.344     0  02:14      2.26    0.03    0.21
  c15                  CHANNEL  1381.225     0  02:26      3.76    0.03    0.17
  c1                   CHANNEL   934.527     0  02:11      2.21    0.07    0.32
  c0                   CHANNEL   934.841     0  02:09      2.59    0.04    0.29
  P6                   CHANNEL   931.478     0  02:08      2.42    0.00    0.06
  P8.1                 CHANNEL   858.111     0  02:08      2.45    0.12    0.04
  P8                   CONDUIT    87.140     0  01:00      1.71    6.84    1.00
  P5                   CONDUIT   197.043     0  01:20      0.66    1.32    1.00
  P5.1                 CHANNEL   785.376     0  02:09      1.09    0.01    0.07
  P5b                  CHANNEL   935.067     0  02:09      2.71    0.01    0.06
  
  
  ***************************
  Flow Classification Summary
  ***************************
  
  -------------------------------------------------------------------------------------
                      Adjusted    ---------- Fraction of Time in Flow Class ---------- 
                       /Actual         Up    Down  Sub   Sup   Up    Down  Norm  Inlet 
  Conduit               Length    Dry  Dry   Dry   Crit  Crit  Crit  Crit  Ltd   Ctrl  
  -------------------------------------------------------------------------------------
  P13.1                   1.00   1.00  0.00  0.00  0.00  0.00  0.00  0.00  0.00  0.00
  P13                     1.00   0.00  0.00  0.00  1.00  0.00  0.00  0.00  0.00  0.00
  P2.1                    1.00   0.04  0.00  0.00  0.64  0.09  0.00  0.24  0.00  0.00
  P2                      1.00   0.00  0.00  0.00  1.00  0.00  0.00  0.00  0.00  0.00
  P17                     1.00   0.00  0.00  0.00  0.98  0.02  0.00  0.00  0.00  0.00
  P15                     1.00   0.00  0.00  0.00  1.00  0.00  0.00  0.00  0.00  0.00
  P12                     1.00   0.00  0.00  0.00  1.00  0.00  0.00  0.00  0.00  0.00
  P11                     1.00   0.00  0.00  0.00  1.00  0.00  0.00  0.00  0.00  0.00
  P10                     1.00   0.00  0.00  0.00  1.00  0.00  0.00  0.00  0.00  0.00
  c2                      1.00   0.00  0.00  0.00  1.00  0.00  0.00  0.00  0.00  0.00
  c3                      1.00   0.00  0.00  0.00  1.00  0.00  0.00  0.00  0.00  0.00
  c4                      1.00   0.00  0.00  0.00  1.00  0.00  0.00  0.00  0.00  0.00
  c5                      1.00   0.00  0.00  0.00  1.00  0.00  0.00  0.00  0.00  0.00
  c6                      1.00   0.00  0.00  0.00  1.00  0.00  0.00  0.00  0.00  0.00
  c7                      1.00   0.00  0.00  0.00  1.00  0.00  0.00  0.00  0.00  0.00
  c8                      1.00   0.00  0.00  0.00  1.00  0.00  0.00  0.00  0.00  0.00
  c9                      1.00   0.00  0.00  0.00  1.00  0.00  0.00  0.00  0.01  0.00
  c10                     1.00   0.00  0.00  0.00  1.00  0.00  0.00  0.00  0.00  0.00
  c11                     1.00   0.00  0.00  0.00  1.00  0.00  0.00  0.00  0.00  0.00
  c12                     1.00   0.00  0.00  0.00  1.00  0.00  0.00  0.00  0.00  0.00
  c13                     1.00   0.00  0.00  0.00  1.00  0.00  0.00  0.00  0.00  0.00
  c14                     1.00   0.00  0.00  0.00  1.00  0.00  0.00  0.00  0.00  0.00
  c15                     1.00   0.00  0.00  0.00  1.00  0.00  0.00  0.00  0.00  0.00
  c1                      1.00   0.00  0.00  0.00  1.00  0.00  0.00  0.00  0.00  0.00
  c0                      1.00   0.00  0.00  0.00  1.00  0.00  0.00  0.00  0.04  0.00
  P6                      1.00   0.00  0.00  0.00  1.00  0.00  0.00  0.00  0.00  0.00
  P8.1                    1.00   0.06  0.00  0.00  0.94  0.00  0.00  0.00  0.00  0.00
  P8                      1.00   0.00  0.00  0.00  1.00  0.00  0.00  0.00  0.00  0.00
  P5                      1.00   0.00  0.00  0.00  1.00  0.00  0.00  0.00  0.00  0.00
  P5.1                    1.00   0.00  0.00  0.00  1.00  0.00  0.00  0.00  0.00  0.00
  P5b                     1.00   0.00  0.00  0.00  1.00  0.00  0.00  0.00  0.00  0.00
  
  
  *************************
  Conduit Surcharge Summary
  *************************
  
  ----------------------------------------------------------------------------
                                                           Hours        Hours 
                         --------- Hours Full --------   Above Full   Capacity
  Conduit                Both Ends  Upstream  Dnstream   Normal Flow   Limited
  ----------------------------------------------------------------------------
  P13                         1.18      2.29      1.18      4.57         1.18
  P2                          6.07      6.44      6.07      6.44         6.07
  P8                          6.14      6.14      6.14      5.98         6.02
  P5                          1.68      1.68      1.68      0.41         0.02
  

  Analysis begun on:  Tue Jun 23 21:01:09 2026
  Analysis ended on:  Tue Jun 23 21:01:09 2026
  Total elapsed time: < 1 sec