
  EPA STORM WATER MANAGEMENT MODEL - VERSION 5.2 (Build 5.2.4)
  ------------------------------------------------------------

   Greenway Flood 
  WARNING 04: minimum elevation drop used for Conduit CowRd
  WARNING 04: minimum elevation drop used for Conduit L9
  WARNING 04: minimum elevation drop used for Conduit L14
  WARNING 04: minimum elevation drop used for Conduit L15
  
  *************
  Element Count
  *************
  Number of rain gages ...... 0
  Number of subcatchments ... 0
  Number of nodes ........... 17
  Number of links ........... 18
  Number of pollutants ...... 0
  Number of land uses ....... 0
  
  
  ************
  Node Summary
  ************
                                           Invert      Max.    Ponded    External
  Name                 Type                 Elev.     Depth      Area    Inflow  
  -------------------------------------------------------------------------------
  G0                   JUNCTION             43.00     57.00       0.0    Yes
  G143                 JUNCTION             41.69     58.31       0.0
  G166                 JUNCTION             41.57     58.43       0.0
  G362                 JUNCTION             40.25     59.75       0.0
  G582                 JUNCTION             38.15     61.85       0.0
  G809                 JUNCTION             36.00     10.00       0.0
  G1055                JUNCTION             35.00      9.00       0.0
  G1274                JUNCTION             32.50     10.50       0.0
  G1302                JUNCTION             32.50      9.50       0.0
  G1461                JUNCTION             32.30      7.70       0.0
  G1702                JUNCTION             29.90     70.10       0.0
  G1865                JUNCTION             28.70     71.30       0.0
  G1991                JUNCTION             28.00     72.00       0.0
  G2026                JUNCTION             28.00     72.00       0.0
  G2211                JUNCTION             28.00     72.00       0.0
  G2366                JUNCTION             27.20     72.80       0.0
  Out                  OUTFALL              27.14      4.00       0.0
  
  
  ************
  Link Summary
  ************
  Name             From Node        To Node          Type            Length    %Slope Roughness
  ---------------------------------------------------------------------------------------------
  L2               G0               G143             CONDUIT          148.0    0.8852    0.0600
  CowRd            G143             G166             CONDUIT           12.0    0.0025    0.0300
  Pipe             G143             G166             CONDUIT           12.0    1.0001    0.0130
  Box              G143             G166             CONDUIT           12.0    0.8334    0.0130
  L4               G166             G362             CONDUIT          200.0    0.6600    0.0600
  L5               G362             G582             CONDUIT          219.5    0.9569    0.0700
  L6               G582             G809             CONDUIT          227.3    0.9457    0.0600
  L7               G809             G1055            CONDUIT          245.6    0.4071    0.0700
  L8               G1055            G1274            CONDUIT          228.4    1.0947    0.0600
  L9               G1274            G1302            CONDUIT           10.0    0.0030    0.0400
  L10              G1302            G1461            CONDUIT          168.7    0.1186    0.0600
  L11              G1461            G1702            CONDUIT          240.6    0.9976    0.0600
  L12              G1702            G1865            CONDUIT          163.5    0.7341    0.0450
  L13              G1865            G1991            CONDUIT          136.3    0.5134    0.0450
  L14              G1991            G2026            CONDUIT           13.0    0.0023    0.0400
  L15              G2026            G2211            CONDUIT          196.0    0.0002    0.0600
  L16              G2211            G2366            CONDUIT          155.6    0.5142    0.0500
  L17              G2366            Out              CONDUIT           10.0    0.6000    0.0600
  
  
  *********************
  Cross Section Summary
  *********************
                                        Full     Full     Hyd.     Max.   No. of     Full
  Conduit          Shape               Depth     Area     Rad.    Width  Barrels     Flow
  ---------------------------------------------------------------------------------------
  L2               2410                 4.73  1046.00     2.63   363.15        1  3125.73
  CowRd            2267                 4.34  1334.95     3.44   385.62        1   511.36
  Pipe             CIRCULAR             0.91     0.66     0.23     0.91        3     1.89
  Box              RECT_CLOSED          1.20     3.60     0.43     3.00        1    14.37
  L4               2244                 6.05  1429.44     3.23   401.89        1  4231.40
  L5               2048                 8.17  2209.88     4.72   437.75        1  8694.21
  L6               1828                 9.85  3483.74     3.89   699.87        1 13976.82
  L7               1601                 8.00  1861.31     4.81   430.53        1  4836.59
  L8               1355                 5.16  1503.78     1.16   635.77        1  2892.16
  L9               1136                 7.50  2335.54     1.20   585.45        1   363.89
  L10              1108                 7.50  2430.53     1.20   606.08        1  1573.40
  L11              949                  5.28  1497.13     1.21   501.80        1  2833.31
  L12              708                  6.10  2138.78     1.11   611.76        1  4370.27
  L13              545                  6.30  1661.25     1.24   673.25        1  3058.11
  L14              419                  7.55  1881.48     1.32   472.96        1   274.32
  L15              384                  5.55   952.73     0.97   509.98        1    19.37
  L16              199                  3.17   928.52     1.05   565.06        1  1375.15
  L17              44                   4.00  2659.43     3.85   681.41        1  8429.90
  
  
  ****************
  Transect Summary
  ****************

  Transect 2410
  Area:  
              0.0009     0.0034     0.0077     0.0152     0.0239 
              0.0334     0.0438     0.0551     0.0671     0.0800 
              0.0938     0.1084     0.1238     0.1400     0.1568 
              0.1739     0.1914     0.2093     0.2275     0.2461 
              0.2651     0.2845     0.3043     0.3244     0.3449 
              0.3657     0.3867     0.4080     0.4296     0.4515 
              0.4736     0.4960     0.5187     0.5416     0.5649 
              0.5901     0.6159     0.6419     0.6684     0.6951 
              0.7222     0.7501     0.7788     0.8083     0.8386 
              0.8700     0.9022     0.9347     0.9672     1.0000 
  Hrad:  
              0.0179     0.0358     0.0537     0.0684     0.0995 
              0.1284     0.1556     0.1813     0.2058     0.2292 
              0.2518     0.2735     0.2946     0.3156     0.3378 
              0.3603     0.3828     0.4054     0.4279     0.4503 
              0.4725     0.4947     0.5166     0.5385     0.5622 
              0.5866     0.6109     0.6349     0.6588     0.6826 
              0.7061     0.7295     0.7526     0.7757     0.7628 
              0.7560     0.7760     0.7986     0.8208     0.8427 
              0.8638     0.8678     0.8799     0.8887     0.9067 
              0.9006     0.9254     0.9502     0.9751     1.0000 
  Width: 
              0.0521     0.1042     0.1563     0.2525     0.2780 
              0.3035     0.3291     0.3546     0.3801     0.4056 
              0.4312     0.4567     0.4822     0.5041     0.5156 
              0.5271     0.5385     0.5500     0.5614     0.5729 
              0.5844     0.5958     0.6073     0.6187     0.6281 
              0.6364     0.6447     0.6531     0.6614     0.6697 
              0.6781     0.6864     0.6947     0.7031     0.7393 
              0.7763     0.7895     0.7994     0.8096     0.8199 
              0.8309     0.8627     0.8853     0.9129     0.9285 
              0.9792     0.9844     0.9896     0.9948     1.0000 

  Transect 2267
  Area:  
              0.0124     0.0253     0.0386     0.0523     0.0665 
              0.0811     0.0961     0.1115     0.1274     0.1437 
              0.1604     0.1776     0.1951     0.2129     0.2311 
              0.2496     0.2684     0.2876     0.3072     0.3270 
              0.3472     0.3678     0.3887     0.4098     0.4310 
              0.4523     0.4737     0.4953     0.5169     0.5386 
              0.5604     0.5824     0.6044     0.6266     0.6488 
              0.6712     0.6936     0.7162     0.7388     0.7616 
              0.7845     0.8075     0.8306     0.8538     0.8772 
              0.9007     0.9253     0.9501     0.9750     1.0000 
  Hrad:  
              0.0247     0.0486     0.0718     0.0943     0.1162 
              0.1376     0.1585     0.1789     0.1989     0.2185 
              0.2378     0.2573     0.2773     0.2969     0.3163 
              0.3355     0.3544     0.3731     0.3915     0.4098 
              0.4279     0.4458     0.4635     0.4861     0.5087 
              0.5313     0.5538     0.5761     0.5984     0.6206 
              0.6426     0.6646     0.6865     0.7083     0.7300 
              0.7516     0.7732     0.7946     0.8160     0.8367 
              0.8574     0.8780     0.8985     0.9192     0.9401 
              0.9580     0.9374     0.9583     0.9792     1.0000 
  Width: 
              0.5046     0.5217     0.5388     0.5560     0.5731 
              0.5902     0.6073     0.6244     0.6415     0.6586 
              0.6757     0.6911     0.7046     0.7181     0.7316 
              0.7451     0.7586     0.7721     0.7856     0.7991 
              0.8126     0.8261     0.8396     0.8441     0.8482 
              0.8523     0.8565     0.8606     0.8647     0.8688 
              0.8729     0.8770     0.8811     0.8852     0.8893 
              0.8934     0.8975     0.9016     0.9057     0.9104 
              0.9151     0.9198     0.9245     0.9289     0.9331 
              0.9401     0.9871     0.9914     0.9957     1.0000 

  Transect 2244
  Area:  
              0.0008     0.0022     0.0039     0.0060     0.0085 
              0.0130     0.0187     0.0244     0.0303     0.0371 
              0.0452     0.0545     0.0650     0.0767     0.0896 
              0.1038     0.1191     0.1355     0.1526     0.1705 
              0.1892     0.2087     0.2289     0.2499     0.2717 
              0.2943     0.3174     0.3412     0.3655     0.3905 
              0.4161     0.4423     0.4692     0.4970     0.5255 
              0.5545     0.5839     0.6137     0.6439     0.6744 
              0.7053     0.7366     0.7683     0.8003     0.8327 
              0.8655     0.8987     0.9322     0.9661     1.0000 
  Hrad:  
              0.0275     0.0535     0.0767     0.0984     0.1190 
              0.0861     0.1213     0.1559     0.1904     0.2200 
              0.2436     0.2633     0.2806     0.2965     0.3114 
              0.3258     0.3399     0.3569     0.3743     0.3919 
              0.4096     0.4273     0.4450     0.4627     0.4803 
              0.4996     0.5195     0.5393     0.5591     0.5788 
              0.5985     0.6180     0.6374     0.6512     0.6722 
              0.6933     0.7144     0.7357     0.7572     0.7786 
              0.8000     0.8213     0.8426     0.8638     0.8850 
              0.9061     0.9271     0.9480     0.9740     1.0000 
  Width: 
              0.0342     0.0454     0.0566     0.0678     0.0790 
              0.1645     0.1672     0.1699     0.1832     0.2191 
              0.2549     0.2907     0.3265     0.3624     0.3982 
              0.4340     0.4691     0.4920     0.5149     0.5378 
              0.5606     0.5835     0.6064     0.6293     0.6522 
              0.6712     0.6893     0.7074     0.7254     0.7435 
              0.7616     0.7796     0.7977     0.8341     0.8461 
              0.8580     0.8700     0.8813     0.8923     0.9033 
              0.9143     0.9253     0.9364     0.9474     0.9584 
              0.9694     0.9804     0.9915     0.9958     1.0000 

  Transect 2048
  Area:  
              0.0003     0.0013     0.0029     0.0052     0.0081 
              0.0122     0.0174     0.0239     0.0316     0.0405 
              0.0506     0.0619     0.0744     0.0881     0.1030 
              0.1192     0.1365     0.1548     0.1739     0.1939 
              0.2146     0.2362     0.2586     0.2816     0.3049 
              0.3286     0.3527     0.3771     0.4018     0.4269 
              0.4523     0.4780     0.5041     0.5305     0.5573 
              0.5843     0.6116     0.6392     0.6674     0.6960 
              0.7250     0.7543     0.7839     0.8137     0.8439 
              0.8744     0.9052     0.9363     0.9679     1.0000 
  Hrad:  
              0.0172     0.0344     0.0516     0.0688     0.0887 
              0.1062     0.1199     0.1327     0.1453     0.1581 
              0.1670     0.1722     0.1827     0.1960     0.2107 
              0.2263     0.2432     0.2636     0.2838     0.3037 
              0.3233     0.3426     0.3621     0.3881     0.4138 
              0.4393     0.4645     0.4900     0.5153     0.5404 
              0.5653     0.5900     0.6145     0.6389     0.6630 
              0.6891     0.7140     0.7333     0.7526     0.7734 
              0.7968     0.8203     0.8451     0.8682     0.8928 
              0.9174     0.9410     0.9610     0.9819     1.0000 
  Width: 
              0.0199     0.0398     0.0597     0.0796     0.1067 
              0.1440     0.1813     0.2187     0.2560     0.2933 
              0.3306     0.3680     0.4053     0.4426     0.4800 
              0.5173     0.5526     0.5780     0.6033     0.6287 
              0.6541     0.6795     0.7042     0.7153     0.7265 
              0.7377     0.7488     0.7592     0.7695     0.7798 
              0.7901     0.8004     0.8107     0.8210     0.8313 
              0.8388     0.8474     0.8622     0.8771     0.8902 
              0.9001     0.9100     0.9183     0.9287     0.9372 
              0.9457     0.9553     0.9696     0.9829     1.0000 

  Transect 1828
  Area:  
              0.0003     0.0010     0.0024     0.0042     0.0066 
              0.0099     0.0140     0.0190     0.0248     0.0313 
              0.0381     0.0452     0.0525     0.0601     0.0728 
              0.0901     0.1076     0.1255     0.1436     0.1620 
              0.1808     0.1999     0.2194     0.2392     0.2595 
              0.2799     0.3005     0.3213     0.3421     0.3636 
              0.3864     0.4095     0.4332     0.4573     0.4818 
              0.5067     0.5320     0.5575     0.5834     0.6113 
              0.6496     0.6879     0.7264     0.7651     0.8039 
              0.8428     0.8819     0.9211     0.9605     1.0000 
  Hrad:  
              0.0252     0.0503     0.0755     0.1007     0.1379 
              0.1684     0.1916     0.2113     0.2294     0.2513 
              0.2777     0.3049     0.3325     0.3600     0.2832 
              0.2936     0.3111     0.3324     0.3559     0.3803 
              0.4052     0.4306     0.4564     0.4823     0.5068 
              0.5361     0.5655     0.5949     0.6242     0.6302 
              0.6557     0.6790     0.7023     0.7254     0.7484 
              0.7722     0.7968     0.8218     0.8468     0.7962 
              0.8108     0.8273     0.8455     0.8651     0.8857 
              0.9072     0.9295     0.9525     0.9760     1.0000 
  Width: 
              0.0132     0.0265     0.0397     0.0530     0.0718 
              0.0932     0.1146     0.1360     0.1574     0.1695 
              0.1757     0.1819     0.1881     0.1943     0.4326 
              0.4399     0.4472     0.4545     0.4618     0.4698 
              0.4787     0.4875     0.4964     0.5052     0.5156 
              0.5189     0.5222     0.5254     0.5289     0.5708 
              0.5803     0.5917     0.6029     0.6140     0.6252 
              0.6343     0.6421     0.6494     0.6569     0.9641 
              0.9677     0.9713     0.9749     0.9785     0.9821 
              0.9857     0.9892     0.9928     0.9964     1.0000 

  Transect 1601
  Area:  
              0.0001     0.0004     0.0010     0.0018     0.0028 
              0.0040     0.0055     0.0079     0.0110     0.0149 
              0.0195     0.0249     0.0311     0.0375     0.0443 
              0.0514     0.0587     0.0663     0.0744     0.0858 
              0.1017     0.1212     0.1418     0.1633     0.1859 
              0.2122     0.2390     0.2663     0.2939     0.3221 
              0.3506     0.3795     0.4086     0.4379     0.4674 
              0.4971     0.5270     0.5599     0.5959     0.6321 
              0.6685     0.7050     0.7418     0.7786     0.8154 
              0.8522     0.8891     0.9261     0.9630     1.0000 
  Hrad:  
              0.0164     0.0328     0.0493     0.0657     0.0821 
              0.0985     0.1216     0.1376     0.1506     0.1639 
              0.1779     0.1929     0.2125     0.2371     0.2624 
              0.2879     0.3135     0.3390     0.3509     0.3341 
              0.3178     0.3102     0.3097     0.3119     0.3160 
              0.2478     0.2761     0.3048     0.3338     0.3627 
              0.3916     0.4216     0.4519     0.4822     0.5124 
              0.5426     0.5727     0.4454     0.4874     0.5305 
              0.5743     0.6188     0.6646     0.7114     0.7587 
              0.8064     0.8544     0.9027     0.9512     1.0000 
  Width: 
              0.0059     0.0119     0.0178     0.0238     0.0297 
              0.0357     0.0528     0.0736     0.0944     0.1152 
              0.1360     0.1568     0.1711     0.1789     0.1867 
              0.1946     0.2024     0.2102     0.2467     0.3693 
              0.4920     0.5426     0.5692     0.5959     0.6225 
              0.7180     0.7299     0.7418     0.7537     0.7656 
              0.7775     0.7838     0.7892     0.7945     0.7998 
              0.8052     0.8105     0.9685     0.9748     0.9803 
              0.9857     0.9910     0.9935     0.9945     0.9954 
              0.9963     0.9972     0.9982     0.9991     1.0000 

  Transect 1355
  Area:  
              0.0002     0.0008     0.0017     0.0031     0.0048 
              0.0069     0.0094     0.0122     0.0155     0.0203 
              0.0281     0.0365     0.0453     0.0546     0.0646 
              0.0752     0.0862     0.0987     0.1139     0.1351 
              0.1598     0.1849     0.2102     0.2358     0.2617 
              0.2878     0.3143     0.3410     0.3680     0.3952 
              0.4225     0.4499     0.4775     0.5053     0.5333 
              0.5616     0.5901     0.6188     0.6477     0.6769 
              0.7063     0.7359     0.7658     0.7959     0.8262 
              0.8567     0.8875     0.9185     0.9564     1.0000 
  Hrad:  
              0.0444     0.0887     0.1331     0.1774     0.2218 
              0.2661     0.3105     0.3548     0.3992     0.4204 
              0.4182     0.4333     0.4549     0.4769     0.5004 
              0.5243     0.5477     0.5409     0.5410     0.4888 
              0.4845     0.4893     0.4997     0.5137     0.5300 
              0.5481     0.5673     0.5874     0.6082     0.6313 
              0.6551     0.6792     0.7020     0.7249     0.7480 
              0.7711     0.7943     0.8174     0.8406     0.8637 
              0.8867     0.9098     0.9327     0.9556     0.9784 
              1.0011     1.0238     1.0464     0.9875     1.0000 
  Width: 
              0.0088     0.0175     0.0263     0.0351     0.0438 
              0.0526     0.0614     0.0701     0.0789     0.1736 
              0.1854     0.1969     0.2080     0.2233     0.2350 
              0.2466     0.2597     0.3211     0.3588     0.5640 
              0.5705     0.5770     0.5835     0.5899     0.5964 
              0.6029     0.6094     0.6159     0.6224     0.6247 
              0.6269     0.6292     0.6345     0.6397     0.6450 
              0.6502     0.6555     0.6607     0.6659     0.6712 
              0.6764     0.6817     0.6869     0.6922     0.6974 
              0.7027     0.7079     0.7132     0.9971     1.0000 

  Transect 1136
  Area:  
              0.0004     0.0008     0.0013     0.0019     0.0025 
              0.0031     0.0039     0.0047     0.0056     0.0066 
              0.0084     0.0115     0.0160     0.0218     0.0291 
              0.0378     0.0478     0.0596     0.0731     0.0884 
              0.1055     0.1244     0.1453     0.1691     0.1960 
              0.2239     0.2521     0.2805     0.3092     0.3381 
              0.3674     0.3970     0.4269     0.4571     0.4878 
              0.5189     0.5508     0.5837     0.6169     0.6503 
              0.6839     0.7180     0.7524     0.7871     0.8220 
              0.8571     0.8924     0.9280     0.9639     1.0000 
  Hrad:  
              0.1177     0.2240     0.3219     0.3979     0.4638 
              0.5286     0.5925     0.6558     0.7186     0.7811 
              0.7994     0.7072     0.6073     0.5312     0.4789 
              0.4448     0.4215     0.4035     0.3922     0.3859 
              0.3837     0.3845     0.3894     0.3900     0.3815 
              0.4025     0.4257     0.4503     0.4759     0.5017 
              0.5265     0.5530     0.5799     0.6055     0.6292 
              0.6545     0.6656     0.6939     0.7222     0.7504 
              0.7765     0.8021     0.8300     0.8582     0.8862 
              0.9142     0.9421     0.9700     0.9969     1.0000 
  Width: 
              0.0113     0.0123     0.0133     0.0150     0.0171 
              0.0191     0.0212     0.0232     0.0253     0.0273 
              0.0642     0.1011     0.1380     0.1749     0.2118 
              0.2487     0.2891     0.3363     0.3836     0.4309 
              0.4781     0.5301     0.5809     0.6803     0.7391 
              0.7457     0.7523     0.7589     0.7655     0.7730 
              0.7834     0.7914     0.7990     0.8091     0.8228 
              0.8341     0.8722     0.8784     0.8847     0.8909 
              0.9009     0.9117     0.9183     0.9246     0.9308 
              0.9370     0.9432     0.9495     0.9570     1.0000 

  Transect 1108
  Area:  
              0.0004     0.0008     0.0013     0.0018     0.0024 
              0.0030     0.0037     0.0046     0.0054     0.0064 
              0.0080     0.0110     0.0153     0.0210     0.0280 
              0.0363     0.0460     0.0573     0.0708     0.0862 
              0.1036     0.1230     0.1444     0.1685     0.1956 
              0.2237     0.2521     0.2806     0.3094     0.3385 
              0.3679     0.3976     0.4276     0.4579     0.4887 
              0.5199     0.5518     0.5847     0.6179     0.6512 
              0.6848     0.7189     0.7532     0.7878     0.8226 
              0.8576     0.8928     0.9283     0.9640     1.0000 
  Hrad:  
              0.1178     0.2243     0.3223     0.3984     0.4644 
              0.5292     0.5932     0.6566     0.7196     0.7821 
              0.8004     0.7081     0.6081     0.5318     0.4796 
              0.4453     0.4221     0.4036     0.3893     0.3802 
              0.3756     0.3744     0.3782     0.3773     0.3736 
              0.3950     0.4185     0.4434     0.4693     0.4953 
              0.5204     0.5471     0.5743     0.6002     0.6243 
              0.6499     0.6619     0.6904     0.7189     0.7473 
              0.7737     0.7996     0.8277     0.8560     0.8843 
              0.9125     0.9406     0.9686     0.9957     1.0000 
  Width: 
              0.0109     0.0119     0.0129     0.0145     0.0165 
              0.0185     0.0205     0.0224     0.0244     0.0264 
              0.0620     0.0977     0.1333     0.1690     0.2046 
              0.2402     0.2792     0.3305     0.3867     0.4392 
              0.4918     0.5461     0.5952     0.6912     0.7480 
              0.7544     0.7607     0.7671     0.7734     0.7808 
              0.7908     0.7985     0.8058     0.8156     0.8289 
              0.8398     0.8766     0.8826     0.8886     0.8946 
              0.9043     0.9147     0.9211     0.9271     0.9331 
              0.9392     0.9452     0.9512     0.9584     1.0000 

  Transect 949
  Area:  
              0.0003     0.0008     0.0014     0.0022     0.0030 
              0.0040     0.0051     0.0069     0.0094     0.0125 
              0.0164     0.0211     0.0264     0.0324     0.0392 
              0.0466     0.0598     0.0750     0.0916     0.1097 
              0.1293     0.1503     0.1727     0.1967     0.2220 
              0.2496     0.2786     0.3077     0.3370     0.3665 
              0.3961     0.4259     0.4559     0.4861     0.5164 
              0.5469     0.5776     0.6084     0.6394     0.6705 
              0.7019     0.7334     0.7650     0.7970     0.8295 
              0.8625     0.8961     0.9302     0.9648     1.0000 
  Hrad:  
              0.0731     0.1319     0.1847     0.2343     0.2821 
              0.3288     0.3845     0.4165     0.4176     0.4097 
              0.4020     0.3970     0.3951     0.3961     0.3994 
              0.4046     0.3329     0.3242     0.3236     0.3276 
              0.3346     0.3435     0.3538     0.3651     0.3770 
              0.3769     0.4025     0.4290     0.4559     0.4833 
              0.5110     0.5389     0.5669     0.5951     0.6233 
              0.6515     0.6797     0.7080     0.7362     0.7644 
              0.7926     0.8207     0.8488     0.8710     0.8926 
              0.9136     0.9348     0.9559     0.9772     1.0000 
  Width: 
              0.0116     0.0152     0.0188     0.0224     0.0260 
              0.0296     0.0394     0.0596     0.0798     0.1000 
              0.1202     0.1404     0.1606     0.1808     0.2010 
              0.2212     0.4079     0.4491     0.4903     0.5316 
              0.5728     0.6141     0.6553     0.6966     0.7378 
              0.8162     0.8210     0.8257     0.8305     0.8352 
              0.8400     0.8448     0.8495     0.8543     0.8590 
              0.8638     0.8685     0.8733     0.8781     0.8828 
              0.8876     0.8923     0.8971     0.9105     0.9248 
              0.9404     0.9560     0.9715     0.9871     1.0000 

  Transect 708
  Area:  
              0.0003     0.0010     0.0018     0.0026     0.0034 
              0.0043     0.0052     0.0062     0.0072     0.0085 
              0.0105     0.0131     0.0163     0.0201     0.0246 
              0.0296     0.0354     0.0510     0.0700     0.0899 
              0.1107     0.1323     0.1548     0.1781     0.2023 
              0.2273     0.2529     0.2792     0.3060     0.3334 
              0.3615     0.3904     0.4202     0.4519     0.4856 
              0.5193     0.5531     0.5870     0.6210     0.6551 
              0.6892     0.7234     0.7577     0.7921     0.8265 
              0.8611     0.8957     0.9304     0.9651     1.0000 
  Hrad:  
              0.0491     0.1519     0.2489     0.3411     0.4291 
              0.5136     0.5950     0.6738     0.7503     0.8144 
              0.8134     0.7808     0.7389     0.6986     0.6641 
              0.6360     0.6141     0.4535     0.3886     0.3663 
              0.3621     0.3670     0.3769     0.3899     0.4047 
              0.4211     0.4398     0.4598     0.4809     0.5026 
              0.5246     0.5403     0.5581     0.5556     0.5817 
              0.6083     0.6353     0.6625     0.6901     0.7178 
              0.7457     0.7737     0.8018     0.8300     0.8582 
              0.8865     0.9148     0.9432     0.9716     1.0000 
  Width: 
              0.0198     0.0210     0.0222     0.0234     0.0246 
              0.0258     0.0270     0.0282     0.0294     0.0471 
              0.0650     0.0830     0.1009     0.1189     0.1368 
              0.1548     0.1727     0.5327     0.5575     0.5822 
              0.6069     0.6316     0.6564     0.6811     0.7058 
              0.7261     0.7432     0.7604     0.7776     0.7947 
              0.8122     0.8416     0.8672     0.9632     0.9655 
              0.9678     0.9701     0.9724     0.9747     0.9770 
              0.9793     0.9816     0.9839     0.9862     0.9885 
              0.9908     0.9931     0.9954     0.9977     1.0000 

  Transect 545
  Area:  
              0.0001     0.0003     0.0007     0.0012     0.0019 
              0.0026     0.0035     0.0045     0.0056     0.0069 
              0.0090     0.0133     0.0183     0.0240     0.0304 
              0.0374     0.0452     0.0537     0.0630     0.0731 
              0.0840     0.0958     0.1084     0.1219     0.1363 
              0.1514     0.1678     0.1862     0.2065     0.2287 
              0.2530     0.2791     0.3073     0.3372     0.3680 
              0.3996     0.4321     0.4652     0.4992     0.5339 
              0.5694     0.6057     0.6529     0.7012     0.7499 
              0.7991     0.8487     0.8987     0.9491     1.0000 
  Hrad:  
              0.0501     0.1003     0.1561     0.2121     0.2658 
              0.3182     0.3699     0.4211     0.4719     0.5225 
              0.5306     0.4707     0.4545     0.4558     0.4657 
              0.4806     0.4984     0.5181     0.5425     0.5666 
              0.5896     0.6119     0.6336     0.6550     0.6761 
              0.6970     0.7069     0.7125     0.7168     0.7203 
              0.7236     0.7269     0.7306     0.7501     0.7775 
              0.8048     0.8319     0.8586     0.8850     0.9109 
              0.9364     0.9614     0.8272     0.8501     0.8740 
              0.8984     0.9234     0.9487     0.9743     1.0000 
  Width: 
              0.0031     0.0062     0.0089     0.0113     0.0137 
              0.0161     0.0184     0.0208     0.0232     0.0256 
              0.0714     0.0909     0.1046     0.1183     0.1321 
              0.1458     0.1595     0.1733     0.1892     0.2058 
              0.2225     0.2392     0.2558     0.2725     0.2891 
              0.3058     0.3400     0.3784     0.4167     0.4551 
              0.4935     0.5318     0.5702     0.5961     0.6118 
              0.6270     0.6421     0.6573     0.6725     0.6876 
              0.7028     0.7179     0.9422     0.9505     0.9587 
              0.9670     0.9752     0.9835     0.9917     1.0000 

  Transect 419
  Area:  
              0.0006     0.0013     0.0021     0.0029     0.0038 
              0.0049     0.0062     0.0077     0.0093     0.0111 
              0.0134     0.0172     0.0226     0.0294     0.0378 
              0.0478     0.0592     0.0717     0.0850     0.0991 
              0.1139     0.1295     0.1459     0.1631     0.1813 
              0.2006     0.2210     0.2424     0.2649     0.2885 
              0.3142     0.3417     0.3714     0.4033     0.4371 
              0.4728     0.5099     0.5474     0.5849     0.6224 
              0.6600     0.6976     0.7353     0.7730     0.8107 
              0.8485     0.8863     0.9242     0.9621     1.0000 
  Hrad:  
              0.1075     0.2047     0.2940     0.3621     0.4049 
              0.4515     0.5005     0.5510     0.6027     0.6552 
              0.7186     0.7108     0.6664     0.6176     0.5760 
              0.5440     0.5216     0.5153     0.5165     0.5223 
              0.5309     0.5415     0.5534     0.5643     0.5737 
              0.5835     0.5937     0.6041     0.6148     0.6257 
              0.6129     0.6131     0.6100     0.6116     0.6147 
              0.6198     0.6371     0.6623     0.6883     0.7150 
              0.7422     0.7698     0.7978     0.8261     0.8546 
              0.8834     0.9123     0.9414     0.9707     1.0000 
  Width: 
              0.0173     0.0188     0.0202     0.0227     0.0272 
              0.0317     0.0362     0.0406     0.0451     0.0496 
              0.0803     0.1205     0.1608     0.2010     0.2412 
              0.2815     0.3195     0.3399     0.3603     0.3808 
              0.4012     0.4216     0.4421     0.4662     0.4943 
              0.5224     0.5505     0.5786     0.6067     0.6348 
              0.7025     0.7532     0.8123     0.8650     0.9161 
              0.9648     0.9863     0.9873     0.9884     0.9894 
              0.9905     0.9915     0.9926     0.9937     0.9947 
              0.9958     0.9968     0.9979     0.9989     1.0000 

  Transect 384
  Area:  
              0.0009     0.0019     0.0029     0.0040     0.0051 
              0.0064     0.0078     0.0094     0.0112     0.0132 
              0.0154     0.0178     0.0203     0.0230     0.0267 
              0.0320     0.0389     0.0475     0.0576     0.0695 
              0.0829     0.0980     0.1147     0.1326     0.1513 
              0.1709     0.1913     0.2125     0.2346     0.2575 
              0.2812     0.3057     0.3312     0.3579     0.3857 
              0.4146     0.4447     0.4759     0.5082     0.5417 
              0.5764     0.6139     0.6532     0.6946     0.7383 
              0.7845     0.8333     0.8858     0.9419     1.0000 
  Hrad:  
              0.1095     0.2108     0.3055     0.3946     0.4772 
              0.5179     0.5622     0.6091     0.6577     0.7078 
              0.7588     0.8107     0.8632     0.9182     0.9834 
              0.9843     0.9524     0.9098     0.8680     0.8320 
              0.8029     0.7807     0.7648     0.7649     0.7714 
              0.7822     0.7959     0.8117     0.8290     0.8474 
              0.8666     0.8864     0.9016     0.9172     0.9330 
              0.9491     0.9653     0.9818     0.9984     1.0152 
              0.9986     1.0075     1.0170     1.0136     1.0111 
              1.0155     1.0220     1.0254     0.9864     1.0000 
  Width: 
              0.0157     0.0167     0.0177     0.0187     0.0197 
              0.0228     0.0258     0.0289     0.0319     0.0350 
              0.0380     0.0411     0.0441     0.0480     0.0755 
              0.1029     0.1303     0.1577     0.1852     0.2126 
              0.2400     0.2674     0.2945     0.3084     0.3224 
              0.3363     0.3502     0.3642     0.3781     0.3920 
              0.4059     0.4200     0.4391     0.4583     0.4774 
              0.4966     0.5157     0.5349     0.5540     0.5732 
              0.6181     0.6466     0.6751     0.7159     0.7576 
              0.7939     0.8527     0.9142     0.9679     1.0000 

  Transect 199
  Area:  
              0.0004     0.0014     0.0032     0.0058     0.0090 
              0.0130     0.0177     0.0231     0.0292     0.0355 
              0.0421     0.0489     0.0559     0.0631     0.0706 
              0.0782     0.0861     0.0942     0.1025     0.1110 
              0.1197     0.1287     0.1379     0.1473     0.1714 
              0.2015     0.2318     0.2622     0.2927     0.3233 
              0.3539     0.3847     0.4156     0.4466     0.4777 
              0.5090     0.5403     0.5717     0.6032     0.6348 
              0.6693     0.7045     0.7403     0.7766     0.8131 
              0.8499     0.8870     0.9243     0.9620     1.0000 
  Hrad:  
              0.0301     0.0602     0.0903     0.1204     0.1505 
              0.1806     0.2107     0.2407     0.2808     0.3306 
              0.3791     0.4264     0.4727     0.5180     0.5625 
              0.6061     0.6490     0.6913     0.7329     0.7739 
              0.8144     0.8544     0.8939     0.9330     0.8688 
              0.8031     0.7648     0.7431     0.7320     0.7283 
              0.7299     0.7353     0.7436     0.7542     0.7665 
              0.7803     0.7953     0.8112     0.8278     0.8452 
              0.8532     0.8673     0.8818     0.8971     0.9132 
              0.9298     0.9469     0.9643     0.9821     1.0000 
  Width: 
              0.0187     0.0374     0.0561     0.0748     0.0935 
              0.1122     0.1309     0.1496     0.1620     0.1676 
              0.1732     0.1788     0.1844     0.1900     0.1956 
              0.2013     0.2069     0.2125     0.2181     0.2237 
              0.2293     0.2349     0.2405     0.2461     0.7806 
              0.7833     0.7860     0.7887     0.7914     0.7941 
              0.7967     0.7994     0.8021     0.8048     0.8075 
              0.8102     0.8129     0.8156     0.8183     0.8210 
              0.9056     0.9202     0.9348     0.9434     0.9504 
              0.9574     0.9644     0.9714     0.9784     1.0000 

  Transect 44
  Area:  
              0.0160     0.0325     0.0491     0.0660     0.0833 
              0.1013     0.1200     0.1397     0.1598     0.1801 
              0.2006     0.2211     0.2416     0.2621     0.2826 
              0.3031     0.3236     0.3441     0.3646     0.3851 
              0.4056     0.4261     0.4466     0.4671     0.4876 
              0.5080     0.5285     0.5490     0.5695     0.5900 
              0.6105     0.6310     0.6515     0.6720     0.6925 
              0.7130     0.7335     0.7540     0.7745     0.7950 
              0.8155     0.8360     0.8565     0.8770     0.8975 
              0.9180     0.9385     0.9590     0.9795     1.0000 
  Hrad:  
              0.0202     0.0407     0.0609     0.0810     0.1005 
              0.1190     0.1367     0.1447     0.1636     0.1818 
              0.2024     0.2230     0.2437     0.2643     0.2849 
              0.3055     0.3261     0.3466     0.3672     0.3878 
              0.4083     0.4288     0.4494     0.4699     0.4904 
              0.5109     0.5314     0.5519     0.5723     0.5928 
              0.6132     0.6337     0.6541     0.6745     0.6950 
              0.7154     0.7357     0.7561     0.7765     0.7969 
              0.8172     0.8376     0.8579     0.8782     0.8986 
              0.9189     0.9392     0.9594     0.9797     1.0000 
  Width: 
              0.8016     0.8070     0.8152     0.8336     0.8627 
              0.8915     0.9368     0.9748     0.9856     1.0000 
              1.0000     1.0000     1.0000     1.0000     1.0000 
              1.0000     1.0000     1.0000     1.0000     1.0000 
              1.0000     1.0000     1.0000     1.0000     1.0000 
              1.0000     1.0000     1.0000     1.0000     1.0000 
              1.0000     1.0000     1.0000     1.0000     1.0000 
              1.0000     1.0000     1.0000     1.0000     1.0000 
              1.0000     1.0000     1.0000     1.0000     1.0000 
              1.0000     1.0000     1.0000     1.0000     1.0000 
  
  
  ****************
  Analysis Options
  ****************
  Flow Units ............... CMS
  Process Models:
    Rainfall/Runoff ........ NO
    RDII ................... NO
    Snowmelt ............... NO
    Groundwater ............ NO
    Flow Routing ........... YES
    Ponding Allowed ........ NO
    Water Quality .......... NO
  Flow Routing Method ...... DYNWAVE
  Surcharge Method ......... EXTRAN
  Starting Date ............ 01/01/2004 00:00:00
  Ending Date .............. 01/01/2004 18:00:00
  Antecedent Dry Days ...... 0.0
  Report Time Step ......... 00:02:00
  Routing Time Step ........ 3.00 sec
  Variable Time Step ....... YES
  Maximum Trials ........... 8
  Number of Threads ........ 1
  Head Tolerance ........... 0.001524 m
  
  
  **************************        Volume        Volume
  Flow Routing Continuity        hectare-m      10^6 ltr
  **************************     ---------     ---------
  Dry Weather Inflow .......         0.000         0.000
  Wet Weather Inflow .......         0.000         0.000
  Groundwater Inflow .......         0.000         0.000
  RDII Inflow ..............         0.000         0.000
  External Inflow ..........        19.273       192.737
  External Outflow .........        17.720       177.206
  Flooding Loss ............         0.000         0.000
  Evaporation Loss .........         0.000         0.000
  Exfiltration Loss ........         0.000         0.000
  Initial Stored Volume ....         0.365         3.649
  Final Stored Volume ......         1.708        17.079
  Continuity Error (%) .....         1.070
  
  
  *************************
  Highest Continuity Errors
  *************************
  Node G2366 (6.26%)
  Node G1274 (1.97%)
  Node G1055 (-1.66%)
  Node G2211 (1.63%)
  
  
  ***************************
  Time-Step Critical Elements
  ***************************
  Link Pipe (18.18%)
  Link Box (5.37%)
  Link L9 (5.15%)
  Link L17 (2.09%)
  
  
  ********************************
  Highest Flow Instability Indexes
  ********************************
  Link L8 (21)
  Link L12 (16)
  Link L13 (16)
  Link L6 (7)
  Link L4 (7)
  
  
  *********************************
  Most Frequent Nonconverging Nodes
  *********************************
  Convergence obtained at all time steps.
  
  
  *************************
  Routing Time Step Summary
  *************************
  Minimum Time Step           :     0.50 sec
  Average Time Step           :     2.54 sec
  Maximum Time Step           :     3.00 sec
  % of Time in Steady State   :     0.00
  Average Iterations per Step :     2.00
  % of Steps Not Converging   :     0.00
  Time Step Frequencies       :
      3.000 -  2.096 sec      :    76.88 %
      2.096 -  1.465 sec      :     5.11 %
      1.465 -  1.024 sec      :     6.52 %
      1.024 -  0.715 sec      :    11.04 %
      0.715 -  0.500 sec      :     0.45 %
  
  
  ******************
  Node Depth Summary
  ******************
  
  ---------------------------------------------------------------------------------
                                 Average  Maximum  Maximum  Time of Max    Reported
                                   Depth    Depth      HGL   Occurrence   Max Depth
  Node                 Type       Meters   Meters   Meters  days hr:min      Meters
  ---------------------------------------------------------------------------------
  G0                   JUNCTION     0.15     1.29    44.29     0  06:59        1.29
  G143                 JUNCTION     0.36     2.57    44.26     0  06:59        2.57
  G166                 JUNCTION     0.17     1.36    42.93     0  07:00        1.35
  G362                 JUNCTION     0.25     1.75    42.00     0  07:03        1.74
  G582                 JUNCTION     0.21     1.29    39.44     0  07:07        1.28
  G809                 JUNCTION     0.54     2.70    38.70     0  07:16        2.69
  G1055                JUNCTION     0.20     1.15    36.15     0  07:08        1.14
  G1274                JUNCTION     0.44     2.54    35.04     0  07:29        2.54
  G1302                JUNCTION     0.43     2.53    35.03     0  07:29        2.53
  G1461                JUNCTION     0.27     1.55    33.85     0  07:28        1.55
  G1702                JUNCTION     0.18     1.28    31.18     0  07:32        1.27
  G1865                JUNCTION     0.33     2.08    30.78     0  07:41        2.08
  G1991                JUNCTION     0.70     2.72    30.72     0  07:41        2.69
  G2026                JUNCTION     0.69     2.72    30.72     0  07:41        2.69
  G2211                JUNCTION     0.42     0.89    28.89     0  07:44        0.89
  G2366                JUNCTION     1.20     1.62    28.82     0  00:00        1.24
  Out                  OUTFALL      1.26     1.26    28.40     0  00:00        1.26
  
  
  *******************
  Node Inflow Summary
  *******************
  
  -------------------------------------------------------------------------------------------------
                                  Maximum  Maximum                  Lateral       Total        Flow
                                  Lateral    Total  Time of Max      Inflow      Inflow     Balance
                                   Inflow   Inflow   Occurrence      Volume      Volume       Error
  Node                 Type           CMS      CMS  days hr:min    10^6 ltr    10^6 ltr     Percent
  -------------------------------------------------------------------------------------------------
  G0                   JUNCTION    99.977   99.977     0  06:59         152         152      -0.652
  G143                 JUNCTION     0.000   96.863     0  06:59           0         153       0.663
  G166                 JUNCTION     0.000   94.504     0  07:00           0         152      -0.532
  G362                 JUNCTION     0.000   94.770     0  07:01           0         153      -0.024
  G582                 JUNCTION     0.000   85.837     0  07:04           0         153      -0.395
  G809                 JUNCTION     0.000   97.988     0  07:07           0         154       0.827
  G1055                JUNCTION     0.000   96.338     0  07:06           0         153      -1.636
  G1274                JUNCTION     0.000   81.267     0  07:08           0         155       2.006
  G1302                JUNCTION     0.000   45.775     0  07:26           0         152      -0.132
  G1461                JUNCTION     0.000   44.682     0  07:29           0         152      -0.051
  G1702                JUNCTION     0.000   45.399     0  07:31           0         152      -0.079
  G1865                JUNCTION     0.000   45.655     0  07:35           0         152       0.025
  G1991                JUNCTION     0.000   54.214     0  07:43           0         153       0.426
  G2026                JUNCTION     0.000   71.410     0  07:41           0         153       0.129
  G2211                JUNCTION     0.000   79.505     0  07:41           0         157       1.652
  G2366                JUNCTION     0.000 1666.221     0  00:00           0         194       6.679
  Out                  OUTFALL      0.000 1666.221     0  00:00           0         218       0.000
  
  
  **********************
  Node Surcharge Summary
  **********************
  
  No nodes were surcharged.
  
  
  *********************
  Node Flooding Summary
  *********************
  
  No nodes were flooded.
  
  
  ***********************
  Outfall Loading Summary
  ***********************
  
  -----------------------------------------------------------
                         Flow       Avg       Max       Total
                         Freq      Flow      Flow      Volume
  Outfall Node           Pcnt       CMS       CMS    10^6 ltr
  -----------------------------------------------------------
  Out                   99.97     4.869  1666.221     217.534
  -----------------------------------------------------------
  System                99.97     4.869  1666.221     217.534
  
  
  ********************
  Link Flow Summary
  ********************
  
  -----------------------------------------------------------------------------
                                 Maximum  Time of Max   Maximum    Max/    Max/
                                  |Flow|   Occurrence   |Veloc|    Full    Full
  Link                 Type          CMS  days hr:min     m/sec    Flow   Depth
  -----------------------------------------------------------------------------
  L2                   CHANNEL    96.863     0  06:59      0.63    0.03    0.41
  CowRd                CHANNEL    60.951     0  07:00      1.15    0.12    0.06
  Pipe                 CONDUIT    13.388     0  06:54      6.80    2.37    1.00
  Box                  CONDUIT    21.367     0  07:00      6.03    1.49    1.00
  L4                   CHANNEL    94.770     0  07:01      1.13    0.02    0.25
  L5                   CHANNEL    85.837     0  07:04      1.19    0.01    0.18
  L6                   CHANNEL    97.988     0  07:07      1.02    0.01    0.20
  L7                   CHANNEL    96.338     0  07:06      3.04    0.02    0.24
  L8                   CHANNEL    81.267     0  07:08      1.06    0.03    0.35
  L9                   CHANNEL    45.775     0  07:26      1.02    0.13    0.34
  L10                  CHANNEL    44.682     0  07:29      1.21    0.03    0.27
  L11                  CHANNEL    45.399     0  07:31      1.56    0.02    0.27
  L12                  CHANNEL    45.655     0  07:35      1.48    0.01    0.27
  L13                  CHANNEL    54.214     0  07:43      1.13    0.02    0.38
  L14                  CHANNEL    71.410     0  07:41      0.62    0.26    0.36
  L15                  CHANNEL    79.505     0  07:41      3.09    4.10    0.31
  L16                  CHANNEL    66.654     0  07:44      0.88    0.05    0.33
  L17                  CHANNEL  1666.221     0  00:00      2.41    0.20    0.36
  
  
  ***************************
  Flow Classification Summary
  ***************************
  
  -------------------------------------------------------------------------------------
                      Adjusted    ---------- Fraction of Time in Flow Class ---------- 
                       /Actual         Up    Down  Sub   Sup   Up    Down  Norm  Inlet 
  Conduit               Length    Dry  Dry   Dry   Crit  Crit  Crit  Crit  Ltd   Ctrl  
  -------------------------------------------------------------------------------------
  L2                      1.00   0.32  0.00  0.00  0.68  0.01  0.00  0.00  0.12  0.00
  CowRd                   1.00   0.97  0.00  0.00  0.00  0.00  0.00  0.03  0.00  0.00
  Pipe                    1.00   0.32  0.00  0.00  0.12  0.57  0.00  0.00  0.00  0.00
  Box                     1.00   0.91  0.00  0.00  0.00  0.00  0.00  0.09  0.00  0.00
  L4                      1.00   0.32  0.00  0.00  0.68  0.00  0.00  0.00  0.53  0.00
  L5                      1.00   0.33  0.00  0.00  0.66  0.01  0.00  0.00  0.13  0.00
  L6                      1.00   0.34  0.00  0.00  0.65  0.01  0.00  0.00  0.56  0.00
  L7                      1.00   0.35  0.00  0.00  0.65  0.01  0.00  0.00  0.00  0.00
  L8                      1.00   0.35  0.00  0.00  0.64  0.01  0.00  0.00  0.09  0.00
  L9                      1.00   0.36  0.00  0.00  0.64  0.00  0.00  0.00  0.00  0.00
  L10                     1.00   0.37  0.00  0.00  0.63  0.00  0.00  0.00  0.00  0.00
  L11                     1.00   0.37  0.00  0.00  0.63  0.00  0.00  0.00  0.12  0.00
  L12                     1.00   0.38  0.00  0.00  0.62  0.00  0.00  0.00  0.37  0.00
  L13                     1.00   0.00  0.38  0.00  0.62  0.00  0.00  0.00  0.34  0.00
  L14                     1.00   0.00  0.00  0.00  1.00  0.00  0.00  0.00  0.00  0.00
  L15                     1.00   0.00  0.00  0.00  1.00  0.00  0.00  0.00  0.00  0.00
  L16                     1.00   0.00  0.00  0.00  1.00  0.00  0.00  0.00  0.00  0.00
  L17                     1.00   0.00  0.00  0.00  1.00  0.00  0.00  0.00  0.00  0.00
  
  
  *************************
  Conduit Surcharge Summary
  *************************
  
  ----------------------------------------------------------------------------
                                                           Hours        Hours 
                         --------- Hours Full --------   Above Full   Capacity
  Conduit                Both Ends  Upstream  Dnstream   Normal Flow   Limited
  ----------------------------------------------------------------------------
  Pipe                        0.38      1.01      0.38      1.15         0.38
  Box                         0.01      0.68      0.01      0.58         0.01
  L15                         0.01      0.01      0.01      1.04         0.01
  

  Analysis begun on:  Tue Jun 23 21:01:09 2026
  Analysis ended on:  Tue Jun 23 21:01:09 2026
  Total elapsed time: < 1 sec