
  EPA STORM WATER MANAGEMENT MODEL - VERSION 5.2 (Build 5.2.4)
  ------------------------------------------------------------

  WARNING 02: maximum depth increased for Node N1
  WARNING 02: maximum depth increased for Node N2
  WARNING 02: maximum depth increased for Node N3
  WARNING 02: maximum depth increased for Node N4
  WARNING 02: maximum depth increased for Node N5
  WARNING 02: maximum depth increased for Node N6
  
  *************
  Element Count
  *************
  Number of rain gages ...... 0
  Number of subcatchments ... 0
  Number of nodes ........... 12
  Number of links ........... 12
  Number of pollutants ...... 0
  Number of land uses ....... 0
  
  
  ************
  Node Summary
  ************
                                           Invert      Max.    Ponded    External
  Name                 Type                 Elev.     Depth      Area    Inflow  
  -------------------------------------------------------------------------------
  N1                   JUNCTION           1502.00     16.00       0.0    Yes
  N2                   JUNCTION           1500.83     16.00       0.0
  N3                   JUNCTION           1493.67     16.00       0.0
  N4                   JUNCTION           1489.50     16.00       0.0
  N5                   JUNCTION           1485.33     16.00       0.0
  N6                   JUNCTION           1481.17     16.00       0.0
  N12                  OUTFALL            1477.00     16.00       0.0
  N7                   STORAGE            1504.00     10.00       0.0
  N8                   STORAGE            1502.00     10.00       0.0
  N9                   STORAGE            1498.00     10.00       0.0
  N10                  STORAGE            1493.00     10.00       0.0
  N11                  STORAGE            1488.00     10.00       0.0
  
  
  ************
  Link Summary
  ************
  Name             From Node        To Node          Type            Length    %Slope Roughness
  ---------------------------------------------------------------------------------------------
  L1               N1               N2               CONDUIT         2000.0    0.0585    0.0250
  L2               N2               N3               CONDUIT         2000.0    0.3580    0.0250
  L3               N3               N4               CONDUIT         2000.0    0.2085    0.0250
  L4               N4               N5               CONDUIT         2000.0    0.2085    0.0250
  L5               N5               N6               CONDUIT         2000.0    0.2080    0.0250
  L6               N1               N7               CONDUIT         2000.0   -0.0500    0.0200
  L7               N7               N8               CONDUIT         2000.0    0.0500    0.0200
  L8               N8               N9               CONDUIT         2000.0    0.2000    0.0200
  L9               N9               N10              CONDUIT         2000.0    0.2500    0.0200
  L10              N10              N11              CONDUIT         2000.0    0.2500    0.0200
  L11              N11              N6               CONDUIT         4000.0    0.2208    0.0200
  L12              N6               N12              CONDUIT         2000.0    0.2085    0.0250
  
  
  *********************
  Cross Section Summary
  *********************
                                        Full     Full     Hyd.     Max.   No. of     Full
  Conduit          Shape               Depth     Area     Rad.    Width  Barrels     Flow
  ---------------------------------------------------------------------------------------
  L1               NS_L1               16.00   913.41     7.74    85.80        1  5139.57
  L2               NS_L1               16.00   913.41     7.74    85.80        1 12714.27
  L3               NS_L1               16.00   913.41     7.74    85.80        1  9702.91
  L4               NS_L1               16.00   913.41     7.74    85.80        1  9702.91
  L5               NS_L1               16.00   913.41     7.74    85.80        1  9691.27
  L6               TRAPEZOIDAL          8.00   232.00     4.17    53.00        1   999.05
  L7               TRAPEZOIDAL          8.00   232.00     4.17    53.00        1   999.05
  L8               TRAPEZOIDAL          5.00   100.00     2.73    35.00        1   649.14
  L9               TRAPEZOIDAL          5.00   100.00     2.73    35.00        1   725.76
  L10              TRAPEZOIDAL          5.00   100.00     2.73    35.00        1   725.76
  L11              TRAPEZOIDAL          8.00   232.00     4.17    53.00        1  2099.21
  L12              NS_L1               16.00   913.41     7.74    85.80        1  9702.91
  
  
  ****************
  Transect Summary
  ****************

  Transect NS_L1
  Area:  
              0.0005     0.0018     0.0041     0.0073     0.0115 
              0.0165     0.0224     0.0293     0.0371     0.0458 
              0.0547     0.0637     0.0727     0.0843     0.0998 
              0.1183     0.1374     0.1569     0.1768     0.1972 
              0.2180     0.2393     0.2611     0.2833     0.3059 
              0.3291     0.3526     0.3766     0.4011     0.4260 
              0.4513     0.4772     0.5034     0.5301     0.5573 
              0.5849     0.6130     0.6415     0.6705     0.6999 
              0.7298     0.7598     0.7898     0.8198     0.8498 
              0.8798     0.9099     0.9399     0.9699     1.0000 
  Hrad:  
              0.0200     0.0400     0.0600     0.0800     0.1000 
              0.1199     0.1399     0.1599     0.1799     0.2037 
              0.2377     0.2702     0.3020     0.3262     0.3350 
              0.3419     0.3547     0.3706     0.3884     0.4072 
              0.4267     0.4465     0.4665     0.4866     0.5067 
              0.5267     0.5467     0.5665     0.5861     0.6056 
              0.6250     0.6442     0.6632     0.6820     0.7007 
              0.7192     0.7376     0.7558     0.7738     0.7917 
              0.8104     0.8318     0.8532     0.8745     0.8957 
              0.9168     0.9378     0.9586     0.9794     1.0000 
  Width: 
              0.0305     0.0610     0.0914     0.1219     0.1524 
              0.1829     0.2134     0.2439     0.2743     0.2974 
              0.2981     0.2989     0.3163     0.4506     0.5848 
              0.6260     0.6410     0.6560     0.6710     0.6860 
              0.7010     0.7161     0.7311     0.7461     0.7611 
              0.7761     0.7912     0.8062     0.8212     0.8362 
              0.8512     0.8663     0.8813     0.8963     0.9113 
              0.9263     0.9413     0.9564     0.9714     0.9864 
              0.9977     0.9980     0.9982     0.9985     0.9987 
              0.9990     0.9992     0.9995     0.9997     1.0000 
  
  
  ****************
  Analysis Options
  ****************
  Flow Units ............... CFS
  Process Models:
    Rainfall/Runoff ........ NO
    RDII ................... NO
    Snowmelt ............... NO
    Groundwater ............ NO
    Flow Routing ........... YES
    Ponding Allowed ........ NO
    Water Quality .......... NO
  Flow Routing Method ...... DYNWAVE
  Surcharge Method ......... EXTRAN
  Starting Date ............ 01/01/1995 00:00:00
  Ending Date .............. 01/01/1995 08:00:00
  Antecedent Dry Days ...... 0.0
  Report Time Step ......... 00:00:15
  Routing Time Step ........ 15.00 sec
  Variable Time Step ....... YES
  Maximum Trials ........... 8
  Number of Threads ........ 1
  Head Tolerance ........... 0.005000 ft
  
  
  **************************        Volume        Volume
  Flow Routing Continuity        acre-feet      10^6 gal
  **************************     ---------     ---------
  Dry Weather Inflow .......         0.000         0.000
  Wet Weather Inflow .......         0.000         0.000
  Groundwater Inflow .......         0.000         0.000
  RDII Inflow ..............         0.000         0.000
  External Inflow ..........       165.282        53.860
  External Outflow .........       132.461        43.165
  Flooding Loss ............         0.000         0.000
  Evaporation Loss .........         0.000         0.000
  Exfiltration Loss ........         0.000         0.000
  Initial Stored Volume ....         8.927         2.909
  Final Stored Volume ......        41.548        13.539
  Continuity Error (%) .....         0.114
  
  
  *************************
  Highest Continuity Errors
  *************************
  Node N11 (9.37%)
  Node N10 (4.94%)
  Node N6 (4.51%)
  Node N8 (3.39%)
  Node N9 (3.26%)
  
  
  ***************************
  Time-Step Critical Elements
  ***************************
  None
  
  
  ********************************
  Highest Flow Instability Indexes
  ********************************
  All links are stable.
  
  
  *********************************
  Most Frequent Nonconverging Nodes
  *********************************
  Convergence obtained at all time steps.
  
  
  *************************
  Routing Time Step Summary
  *************************
  Minimum Time Step           :    14.50 sec
  Average Time Step           :    14.99 sec
  Maximum Time Step           :    15.00 sec
  % of Time in Steady State   :     0.00
  Average Iterations per Step :     2.01
  % of Steps Not Converging   :     0.05
  Time Step Frequencies       :
     15.000 -  7.597 sec      :   100.00 %
      7.597 -  3.848 sec      :     0.00 %
      3.848 -  1.949 sec      :     0.00 %
      1.949 -  0.987 sec      :     0.00 %
      0.987 -  0.500 sec      :     0.00 %
  
  
  ******************
  Node Depth Summary
  ******************
  
  ---------------------------------------------------------------------------------
                                 Average  Maximum  Maximum  Time of Max    Reported
                                   Depth    Depth      HGL   Occurrence   Max Depth
  Node                 Type         Feet     Feet     Feet  days hr:min        Feet
  ---------------------------------------------------------------------------------
  N1                   JUNCTION     4.82     4.87  1506.87     0  03:12        4.87
  N2                   JUNCTION     3.10     3.37  1504.20     0  00:25        3.37
  N3                   JUNCTION     3.46     4.05  1497.72     0  00:33        4.05
  N4                   JUNCTION     3.55     4.14  1493.64     0  00:42        4.14
  N5                   JUNCTION     3.22     4.10  1489.43     0  00:55        4.10
  N6                   JUNCTION     3.58     4.15  1485.32     0  08:00        4.15
  N12                  OUTFALL      3.00     3.00  1480.00     0  00:00        3.00
  N7                   STORAGE      2.47     2.68  1506.68     0  03:05        2.68
  N8                   STORAGE      2.82     3.20  1505.20     0  04:42        3.20
  N9                   STORAGE      2.58     3.14  1501.14     0  05:58        3.14
  N10                  STORAGE      2.43     3.17  1496.17     0  07:21        3.17
  N11                  STORAGE      2.21     3.01  1491.01     0  08:00        3.01
  
  
  *******************
  Node Inflow Summary
  *******************
  
  -------------------------------------------------------------------------------------------------
                                  Maximum  Maximum                  Lateral       Total        Flow
                                  Lateral    Total  Time of Max      Inflow      Inflow     Balance
                                   Inflow   Inflow   Occurrence      Volume      Volume       Error
  Node                 Type           CFS      CFS  days hr:min    10^6 gal    10^6 gal     Percent
  -------------------------------------------------------------------------------------------------
  N1                   JUNCTION    250.00   250.00     0  00:00        53.9        53.9       1.956
  N2                   JUNCTION      0.00   227.31     0  00:23           0        47.4       1.482
  N3                   JUNCTION      0.00   257.84     0  00:30           0        46.7       1.630
  N4                   JUNCTION      0.00   274.16     0  00:37           0          46       1.904
  N5                   JUNCTION      0.00   275.97     0  00:45           0        45.1       1.539
  N6                   JUNCTION      0.00   249.05     0  08:00           0        45.2       4.728
  N12                  OUTFALL       0.00   247.48     0  08:00           0        43.2       0.000
  N7                   STORAGE       0.00    32.78     0  00:49           0        5.55       5.852
  N8                   STORAGE       0.00    24.85     0  04:22           0        4.82       3.511
  N9                   STORAGE       0.00    26.89     0  05:33           0        3.92       3.368
  N10                  STORAGE       0.00    28.18     0  06:34           0        3.18       5.201
  N11                  STORAGE       0.00    27.54     0  07:51           0        2.28      10.340
  
  
  **********************
  Node Surcharge Summary
  **********************
  
  No nodes were surcharged.
  
  
  *********************
  Node Flooding Summary
  *********************
  
  No nodes were flooded.
  
  
  **********************
  Storage Volume Summary
  **********************
  
  ------------------------------------------------------------------------------------------------
                         Average    Avg   Evap  Exfil     Maximum    Max    Time of Max    Maximum
                          Volume   Pcnt   Pcnt   Pcnt      Volume   Pcnt     Occurrence    Outflow
  Storage Unit          1000 ftł   Full   Loss   Loss    1000 ftł   Full    days hr:min        CFS
  ------------------------------------------------------------------------------------------------
  N7                     129.606   15.2    0.0    0.0     147.292   17.3       0  03:05      24.85
  N8                     159.193   18.6    0.0    0.0     193.302   22.6       0  04:42      26.89
  N9                     138.393   16.2    0.0    0.0     187.423   22.0       0  05:58      28.18
  N10                    124.693   14.6    0.0    0.0     190.597   22.3       0  07:21      27.54
  N11                    105.931   12.4    0.0    0.0     175.975   20.6       0  08:00      22.45
  
  
  ***********************
  Outfall Loading Summary
  ***********************
  
  -----------------------------------------------------------
                         Flow       Avg       Max       Total
                         Freq      Flow      Flow      Volume
  Outfall Node           Pcnt       CFS       CFS    10^6 gal
  -----------------------------------------------------------
  N12                   93.08    215.22    247.48      43.161
  -----------------------------------------------------------
  System                93.08    215.22    247.48      43.161
  
  
  ********************
  Link Flow Summary
  ********************
  
  -----------------------------------------------------------------------------
                                 Maximum  Time of Max   Maximum    Max/    Max/
                                  |Flow|   Occurrence   |Veloc|    Full    Full
  Link                 Type          CFS  days hr:min    ft/sec    Flow   Depth
  -----------------------------------------------------------------------------
  L1                   CHANNEL    227.31     0  00:23      9.63    0.04    0.26
  L2                   CHANNEL    257.84     0  00:30      5.61    0.02    0.22
  L3                   CHANNEL    274.16     0  00:37      4.60    0.03    0.25
  L4                   CHANNEL    275.97     0  00:45      4.90    0.03    0.24
  L5                   CHANNEL    241.37     0  00:48      7.25    0.02    0.24
  L6                   CONDUIT     32.78     0  00:49      1.65    0.03    0.28
  L7                   CONDUIT     24.85     0  04:22      1.96    0.02    0.18
  L8                   CONDUIT     26.89     0  05:33      2.86    0.04    0.23
  L9                   CONDUIT     28.18     0  06:34      3.15    0.04    0.22
  L10                  CONDUIT     27.54     0  07:51      3.23    0.04    0.21
  L11                  CONDUIT     22.45     0  08:00      0.68    0.01    0.32
  L12                  CHANNEL    247.48     0  08:00      4.81    0.03    0.22
  
  
  ***************************
  Flow Classification Summary
  ***************************
  
  -------------------------------------------------------------------------------------
                      Adjusted    ---------- Fraction of Time in Flow Class ---------- 
                       /Actual         Up    Down  Sub   Sup   Up    Down  Norm  Inlet 
  Conduit               Length    Dry  Dry   Dry   Crit  Crit  Crit  Crit  Ltd   Ctrl  
  -------------------------------------------------------------------------------------
  L1                      1.00   0.00  0.00  0.00  1.00  0.00  0.00  0.00  0.00  0.00
  L2                      1.00   0.00  0.00  0.00  0.97  0.03  0.00  0.00  0.00  0.00
  L3                      1.00   0.00  0.00  0.00  0.98  0.02  0.00  0.00  0.00  0.00
  L4                      1.00   0.02  0.00  0.00  0.96  0.02  0.00  0.00  0.00  0.00
  L5                      1.00   0.03  0.00  0.00  0.91  0.06  0.00  0.00  0.00  0.00
  L6                      1.00   0.00  0.00  0.00  0.90  0.00  0.09  0.00  0.00  0.00
  L7                      1.00   0.01  0.00  0.00  0.70  0.00  0.00  0.29  0.00  0.00
  L8                      1.00   0.02  0.00  0.00  0.50  0.00  0.00  0.47  0.00  0.00
  L9                      1.00   0.09  0.00  0.00  0.33  0.00  0.00  0.58  0.00  0.00
  L10                     1.00   0.21  0.00  0.00  0.12  0.00  0.00  0.66  0.00  0.00
  L11                     1.00   0.05  0.33  0.00  0.62  0.00  0.00  0.00  0.62  0.00
  L12                     1.00   0.00  0.05  0.00  0.95  0.00  0.00  0.00  0.07  0.00
  
  
  *************************
  Conduit Surcharge Summary
  *************************
  
  No conduits were surcharged.
  

  Analysis begun on:  Tue Jun 23 21:01:09 2026
  Analysis ended on:  Tue Jun 23 21:01:09 2026
  Total elapsed time: < 1 sec