
  EPA STORM WATER MANAGEMENT MODEL - VERSION 5.2 (Build 5.2.4)
  ------------------------------------------------------------

  
  *************
  Element Count
  *************
  Number of rain gages ...... 0
  Number of subcatchments ... 0
  Number of nodes ........... 12
  Number of links ........... 10
  Number of pollutants ...... 0
  Number of land uses ....... 0
  
  
  ************
  Node Summary
  ************
                                           Invert      Max.    Ponded    External
  Name                 Type                 Elev.     Depth      Area    Inflow  
  -------------------------------------------------------------------------------
  N1                   JUNCTION              0.19      1.81       0.0    Yes
  N1.1                 JUNCTION              0.09      1.91       0.0
  N1.1.1               JUNCTION              0.05      1.95       0.0
  N1.1.1.1             JUNCTION              0.02      1.98       0.0
  N1.1.1.1.1           JUNCTION              0.01      1.99       0.0
  N2                   JUNCTION              0.19      1.81       0.0
  S1.1                 JUNCTION              0.01      1.99       0.0
  S1.1.1               JUNCTION              0.02      1.98       0.0
  S1.1.1.1             JUNCTION              0.05      1.95       0.0
  S1.1.1.1.1           JUNCTION              0.09      1.91       0.0
  O                    OUTFALL               0.00      1.30       0.0
  1                    OUTFALL               0.00      1.30       0.0
  
  
  ************
  Link Summary
  ************
  Name             From Node        To Node          Type            Length    %Slope Roughness
  ---------------------------------------------------------------------------------------------
  L1               N1               N1.1             CONDUIT          500.0    0.0190    0.0140
  L2               N1.1             N1.1.1           CONDUIT          250.0    0.0190    0.0140
  L3               N1.1.1           N1.1.1.1         CONDUIT          125.0    0.0190    0.0140
  L4               N1.1.1.1         N1.1.1.1.1       CONDUIT           62.5    0.0190    0.0140
  L5               N1.1.1.1.1       O                CONDUIT           62.5    0.0190    0.0140
  A                N2               S1.1.1.1.1       CONDUIT          500.0    0.0190    0.0140
  B                S1.1.1.1.1       S1.1.1.1         CONDUIT          250.0    0.0190    0.0140
  C                S1.1.1.1         S1.1.1           CONDUIT          125.0    0.0190    0.0140
  D                S1.1.1           S1.1             CONDUIT           62.5    0.0190    0.0140
  E                S1.1             1                CONDUIT           62.5    0.0190    0.0140
  
  
  *********************
  Cross Section Summary
  *********************
                                        Full     Full     Hyd.     Max.   No. of     Full
  Conduit          Shape               Depth     Area     Rad.    Width  Barrels     Flow
  ---------------------------------------------------------------------------------------
  L1               CIRCULAR             1.30     1.33     0.33     1.30        1     0.62
  L2               CIRCULAR             1.30     1.33     0.33     1.30        1     0.62
  L3               CIRCULAR             1.30     1.33     0.33     1.30        1     0.62
  L4               CIRCULAR             1.30     1.33     0.33     1.30        1     0.62
  L5               CIRCULAR             1.30     1.33     0.33     1.30        1     0.62
  A                CIRCULAR             1.30     1.33     0.33     1.30        1     0.62
  B                CIRCULAR             1.30     1.33     0.33     1.30        1     0.62
  C                CIRCULAR             1.30     1.33     0.33     1.30        1     0.62
  D                CIRCULAR             1.30     1.33     0.33     1.30        1     0.62
  E                CIRCULAR             1.30     1.33     0.33     1.30        1     0.62
  
  
  ****************
  Analysis Options
  ****************
  Flow Units ............... CMS
  Process Models:
    Rainfall/Runoff ........ NO
    RDII ................... NO
    Snowmelt ............... NO
    Groundwater ............ NO
    Flow Routing ........... YES
    Ponding Allowed ........ NO
    Water Quality .......... NO
  Flow Routing Method ...... DYNWAVE
  Surcharge Method ......... EXTRAN
  Starting Date ............ 01/01/1995 00:00:00
  Ending Date .............. 01/01/1995 06:00:00
  Antecedent Dry Days ...... 0.0
  Report Time Step ......... 00:00:30
  Routing Time Step ........ 15.00 sec
  Variable Time Step ....... YES
  Maximum Trials ........... 8
  Number of Threads ........ 1
  Head Tolerance ........... 0.001500 m
  
  
  **************************        Volume        Volume
  Flow Routing Continuity        hectare-m      10^6 ltr
  **************************     ---------     ---------
  Dry Weather Inflow .......         0.000         0.000
  Wet Weather Inflow .......         0.000         0.000
  Groundwater Inflow .......         0.000         0.000
  RDII Inflow ..............         0.000         0.000
  External Inflow ..........         0.108         1.080
  External Outflow .........         0.108         1.078
  Flooding Loss ............         0.000         0.000
  Evaporation Loss .........         0.000         0.000
  Exfiltration Loss ........         0.000         0.000
  Initial Stored Volume ....         0.000         0.000
  Final Stored Volume ......         0.000         0.002
  Continuity Error (%) .....        -0.064
  
  
  *************************
  Highest Continuity Errors
  *************************
  Node N1.1 (1.44%)
  
  
  ***************************
  Time-Step Critical Elements
  ***************************
  None
  
  
  ********************************
  Highest Flow Instability Indexes
  ********************************
  All links are stable.
  
  
  *********************************
  Most Frequent Nonconverging Nodes
  *********************************
  Convergence obtained at all time steps.
  
  
  *************************
  Routing Time Step Summary
  *************************
  Minimum Time Step           :    14.50 sec
  Average Time Step           :    14.99 sec
  Maximum Time Step           :    15.00 sec
  % of Time in Steady State   :     0.00
  Average Iterations per Step :     2.01
  % of Steps Not Converging   :     0.00
  Time Step Frequencies       :
     15.000 -  7.597 sec      :   100.00 %
      7.597 -  3.848 sec      :     0.00 %
      3.848 -  1.949 sec      :     0.00 %
      1.949 -  0.987 sec      :     0.00 %
      0.987 -  0.500 sec      :     0.00 %
  
  
  ******************
  Node Depth Summary
  ******************
  
  ---------------------------------------------------------------------------------
                                 Average  Maximum  Maximum  Time of Max    Reported
                                   Depth    Depth      HGL   Occurrence   Max Depth
  Node                 Type       Meters   Meters   Meters  days hr:min      Meters
  ---------------------------------------------------------------------------------
  N1                   JUNCTION     0.13     0.78     0.97     0  00:12        0.78
  N1.1                 JUNCTION     0.14     0.63     0.72     0  00:27        0.63
  N1.1.1               JUNCTION     0.14     0.57     0.61     0  00:29        0.57
  N1.1.1.1             JUNCTION     0.14     0.51     0.53     0  00:30        0.51
  N1.1.1.1.1           JUNCTION     0.13     0.45     0.46     0  00:30        0.45
  N2                   JUNCTION     0.00     0.00     0.19     0  00:00        0.00
  S1.1                 JUNCTION     0.00     0.00     0.01     0  00:00        0.00
  S1.1.1               JUNCTION     0.00     0.00     0.02     0  00:00        0.00
  S1.1.1.1             JUNCTION     0.00     0.00     0.05     0  00:00        0.00
  S1.1.1.1.1           JUNCTION     0.00     0.00     0.09     0  00:00        0.00
  O                    OUTFALL      0.07     0.32     0.32     0  00:30        0.32
  1                    OUTFALL      0.00     0.00     0.00     0  00:00        0.00
  
  
  *******************
  Node Inflow Summary
  *******************
  
  -------------------------------------------------------------------------------------------------
                                  Maximum  Maximum                  Lateral       Total        Flow
                                  Lateral    Total  Time of Max      Inflow      Inflow     Balance
                                   Inflow   Inflow   Occurrence      Volume      Volume       Error
  Node                 Type           CMS      CMS  days hr:min    10^6 ltr    10^6 ltr     Percent
  -------------------------------------------------------------------------------------------------
  N1                   JUNCTION     0.600    0.600     0  00:06        1.08        1.08      -2.022
  N1.1                 JUNCTION     0.000    0.558     0  00:14           0         1.1       1.457
  N1.1.1               JUNCTION     0.000    0.422     0  00:21           0        1.09       0.451
  N1.1.1.1             JUNCTION     0.000    0.390     0  00:28           0        1.08       0.184
  N1.1.1.1.1           JUNCTION     0.000    0.389     0  00:30           0        1.08       0.119
  N2                   JUNCTION     0.000    0.000     0  00:00           0           0       0.000 ltr
  S1.1                 JUNCTION     0.000    0.000     0  00:00           0           0       0.000 ltr
  S1.1.1               JUNCTION     0.000    0.000     0  00:00           0           0       0.000 ltr
  S1.1.1.1             JUNCTION     0.000    0.000     0  00:00           0           0       0.000 ltr
  S1.1.1.1.1           JUNCTION     0.000    0.000     0  00:00           0           0       0.000 ltr
  O                    OUTFALL      0.000    0.389     0  00:30           0        1.08       0.000
  1                    OUTFALL      0.000    0.000     0  00:00           0           0       0.000 ltr
  
  
  **********************
  Node Surcharge Summary
  **********************
  
  No nodes were surcharged.
  
  
  *********************
  Node Flooding Summary
  *********************
  
  No nodes were flooded.
  
  
  ***********************
  Outfall Loading Summary
  ***********************
  
  -----------------------------------------------------------
                         Flow       Avg       Max       Total
                         Freq      Flow      Flow      Volume
  Outfall Node           Pcnt       CMS       CMS    10^6 ltr
  -----------------------------------------------------------
  O                     95.63     0.052     0.389       1.078
  1                      0.00     0.000     0.000       0.000
  -----------------------------------------------------------
  System                47.81     0.052     0.389       1.078
  
  
  ********************
  Link Flow Summary
  ********************
  
  -----------------------------------------------------------------------------
                                 Maximum  Time of Max   Maximum    Max/    Max/
                                  |Flow|   Occurrence   |Veloc|    Full    Full
  Link                 Type          CMS  days hr:min     m/sec    Flow   Depth
  -----------------------------------------------------------------------------
  L1                   CONDUIT     0.558     0  00:14      0.93    0.90    0.51
  L2                   CONDUIT     0.422     0  00:21      0.84    0.68    0.46
  L3                   CONDUIT     0.390     0  00:28      0.81    0.63    0.41
  L4                   CONDUIT     0.389     0  00:30      0.87    0.63    0.37
  L5                   CONDUIT     0.389     0  00:30      1.17    0.63    0.30
  A                    CONDUIT     0.000     0  00:00      0.00    0.00    0.00
  B                    CONDUIT     0.000     0  00:00      0.00    0.00    0.00
  C                    CONDUIT     0.000     0  00:00      0.00    0.00    0.00
  D                    CONDUIT     0.000     0  00:00      0.00    0.00    0.00
  E                    CONDUIT     0.000     0  00:00      0.00    0.00    0.00
  
  
  ***************************
  Flow Classification Summary
  ***************************
  
  -------------------------------------------------------------------------------------
                      Adjusted    ---------- Fraction of Time in Flow Class ---------- 
                       /Actual         Up    Down  Sub   Sup   Up    Down  Norm  Inlet 
  Conduit               Length    Dry  Dry   Dry   Crit  Crit  Crit  Crit  Ltd   Ctrl  
  -------------------------------------------------------------------------------------
  L1                      1.00   0.00  0.00  0.00  1.00  0.00  0.00  0.00  0.35  0.00
  L2                      1.00   0.00  0.00  0.00  1.00  0.00  0.00  0.00  0.00  0.00
  L3                      1.00   0.00  0.00  0.00  1.00  0.00  0.00  0.00  0.00  0.00
  L4                      1.00   0.01  0.00  0.00  0.99  0.00  0.00  0.00  0.00  0.00
  L5                      1.00   0.02  0.00  0.00  0.98  0.00  0.00  0.00  0.00  0.00
  A                       1.00   1.00  0.00  0.00  0.00  0.00  0.00  0.00  0.00  0.00
  B                       1.00   1.00  0.00  0.00  0.00  0.00  0.00  0.00  0.00  0.00
  C                       1.00   1.00  0.00  0.00  0.00  0.00  0.00  0.00  0.00  0.00
  D                       1.00   1.00  0.00  0.00  0.00  0.00  0.00  0.00  0.00  0.00
  E                       1.00   1.00  0.00  0.00  0.00  0.00  0.00  0.00  0.00  0.00
  
  
  *************************
  Conduit Surcharge Summary
  *************************
  
  No conduits were surcharged.
  

  Analysis begun on:  Tue Jun 23 21:01:10 2026
  Analysis ended on:  Tue Jun 23 21:01:10 2026
  Total elapsed time: < 1 sec