
  EPA STORM WATER MANAGEMENT MODEL - VERSION 5.2 (Build 5.2.4)
  ------------------------------------------------------------

   Wiltse Flats Stormwater Analysis 
  
  *************
  Element Count
  *************
  Number of rain gages ...... 1
  Number of subcatchments ... 2
  Number of nodes ........... 15
  Number of links ........... 14
  Number of pollutants ...... 0
  Number of land uses ....... 0
  
  
  ****************
  Raingage Summary
  ****************
                                                      Data       Recording
  Name                 Data Source                    Type       Interval 
  ------------------------------------------------------------------------
  Penticton~10yr       RN#1                           INTENSITY    5 min.
  
  
  ********************
  Subcatchment Summary
  ********************
  Name                       Area     Width   %Imperv    %Slope Rain Gage            Outlet              
  -----------------------------------------------------------------------------------------------------------
  19#1                      68.63    377.00     27.00   13.0000 Penticton~10yr       19                  
  18#1                      91.39    363.00     27.00    8.7400 Penticton~10yr       18                  
  
  
  ************
  Node Summary
  ************
                                           Invert      Max.    Ponded    External
  Name                 Type                 Elev.     Depth      Area    Inflow  
  -------------------------------------------------------------------------------
  19                   JUNCTION            417.90      2.00       0.0
  17                   JUNCTION            417.80      1.60       0.0
  16                   JUNCTION            417.69      4.31       0.0
  15                   JUNCTION            417.60      5.85       0.0
  18                   JUNCTION            417.66      5.94       0.0
  14                   JUNCTION            417.50      6.30       0.0
  13                   JUNCTION            417.30      2.00       0.0
  12                   JUNCTION            408.40      1.80       0.0
  11                   JUNCTION            401.80      2.30       0.0
  10                   JUNCTION            399.30      1.90       0.0
  9                    JUNCTION            398.90      3.10       0.0
  8                    JUNCTION            398.85      1.15       0.0
  7                    JUNCTION            398.57      2.93       0.0
  6                    JUNCTION            398.43      2.77       0.0
  Outfall              OUTFALL             398.00      1.15       0.0
  
  
  ************
  Link Summary
  ************
  Name             From Node        To Node          Type            Length    %Slope Roughness
  ---------------------------------------------------------------------------------------------
  24               19               17               CONDUIT           20.0    0.5000    0.0130
  22               17               16               CONDUIT           61.0    0.1803    0.0130
  28               16               15               CONDUIT           52.5    0.1714    0.0130
  30               18               15               CONDUIT           12.5    0.4800    0.0130
  51               15               14               CONDUIT          126.0    0.0794    0.0130
  54               14               13               CONDUIT          115.0    0.1739    0.0130
  56               13               12               CONDUIT          153.0    5.8269    0.0130
  58               12               11               CONDUIT          134.5    4.4654    0.0130
  62               11               10               CONDUIT           89.3    2.6892    0.0130
  63               10               9                CONDUIT           81.5    0.4908    0.0130
  64               9                8                CONDUIT          131.0    0.0382    0.0130
  69               6                Outfall          CONDUIT           12.0    0.2083    0.0130
  71               7                6                CONDUIT           70.8    0.2048    0.0130
  72               8                7                CONDUIT          106.8    0.2622    0.0130
  
  
  *********************
  Cross Section Summary
  *********************
                                        Full     Full     Hyd.     Max.   No. of     Full
  Conduit          Shape               Depth     Area     Rad.    Width  Barrels     Flow
  ---------------------------------------------------------------------------------------
  24               CIRCULAR             0.45     0.16     0.11     0.45        1     0.20
  22               CIRCULAR             0.75     0.44     0.19     0.75        1     0.47
  28               CIRCULAR             0.75     0.44     0.19     0.75        1     0.46
  30               CIRCULAR             0.60     0.28     0.15     0.60        1     0.43
  51               CIRCULAR             0.75     0.44     0.19     0.75        1     0.31
  54               CIRCULAR             0.75     0.44     0.19     0.75        1     0.46
  56               CIRCULAR             0.60     0.28     0.15     0.60        1     1.48
  58               CIRCULAR             0.60     0.28     0.15     0.60        1     1.30
  62               CIRCULAR             0.60     0.28     0.15     0.60        1     1.01
  63               CIRCULAR             0.60     0.28     0.15     0.60        1     0.43
  64               CIRCULAR             0.75     0.44     0.19     0.75        1     0.22
  69               CIRCULAR             0.75     0.44     0.19     0.75        1     0.51
  71               CIRCULAR             0.75     0.44     0.19     0.75        1     0.50
  72               CIRCULAR             0.75     0.44     0.19     0.75        1     0.57
  
  
  ****************
  Analysis Options
  ****************
  Flow Units ............... CMS
  Process Models:
    Rainfall/Runoff ........ YES
    RDII ................... NO
    Snowmelt ............... NO
    Groundwater ............ NO
    Flow Routing ........... YES
    Ponding Allowed ........ NO
    Water Quality .......... NO
  Infiltration Method ...... HORTON
  Flow Routing Method ...... DYNWAVE
  Surcharge Method ......... EXTRAN
  Starting Date ............ 08/02/1999 13:00:00
  Ending Date .............. 08/02/1999 23:00:00
  Antecedent Dry Days ...... 0.0
  Report Time Step ......... 00:00:15
  Wet Time Step ............ 00:01:00
  Dry Time Step ............ 01:00:00
  Routing Time Step ........ 15.00 sec
  Variable Time Step ....... YES
  Maximum Trials ........... 8
  Number of Threads ........ 1
  Head Tolerance ........... 0.001524 m
  
  
  **************************        Volume         Depth
  Runoff Quantity Continuity     hectare-m            mm
  **************************     ---------       -------
  Total Precipitation ......         1.193         7.458
  Evaporation Loss .........         0.000         0.000
  Infiltration Loss ........         0.871         5.444
  Surface Runoff ...........         0.256         1.599
  Final Storage ............         0.066         0.416
  Continuity Error (%) .....        -0.014
  
  
  **************************        Volume        Volume
  Flow Routing Continuity        hectare-m      10^6 ltr
  **************************     ---------     ---------
  Dry Weather Inflow .......         0.000         0.000
  Wet Weather Inflow .......         0.256         2.555
  Groundwater Inflow .......         0.000         0.000
  RDII Inflow ..............         0.000         0.000
  External Inflow ..........         0.000         0.000
  External Outflow .........         0.224         2.238
  Flooding Loss ............         0.030         0.300
  Evaporation Loss .........         0.000         0.000
  Exfiltration Loss ........         0.000         0.000
  Initial Stored Volume ....         0.000         0.000
  Final Stored Volume ......         0.000         0.004
  Continuity Error (%) .....         0.520
  
  
  ***************************
  Time-Step Critical Elements
  ***************************
  Link 69 (93.79%)
  Link 30 (3.81%)
  
  
  ********************************
  Highest Flow Instability Indexes
  ********************************
  Link 28 (32)
  Link 24 (7)
  Link 30 (5)
  Link 63 (2)
  
  
  *********************************
  Most Frequent Nonconverging Nodes
  *********************************
  Node Outfall (0.70%)
  Node 17 (0.35%)
  Node 19 (0.35%)
  Node 16 (0.33%)
  Node 18 (0.26%)
  
  
  *************************
  Routing Time Step Summary
  *************************
  Minimum Time Step           :     0.50 sec
  Average Time Step           :     6.63 sec
  Maximum Time Step           :    15.00 sec
  % of Time in Steady State   :     0.00
  Average Iterations per Step :     2.21
  % of Steps Not Converging   :     0.70
  Time Step Frequencies       :
     15.000 -  7.597 sec      :    38.68 %
      7.597 -  3.848 sec      :    28.20 %
      3.848 -  1.949 sec      :    31.61 %
      1.949 -  0.987 sec      :     1.11 %
      0.987 -  0.500 sec      :     0.41 %
  
  
  ***************************
  Subcatchment Runoff Summary
  ***************************
  
  ------------------------------------------------------------------------------------------------------------------------------
                            Total      Total      Total      Total     Imperv       Perv      Total       Total     Peak  Runoff
                           Precip      Runon       Evap      Infil     Runoff     Runoff     Runoff      Runoff   Runoff   Coeff
  Subcatchment                 mm         mm         mm         mm         mm         mm         mm    10^6 ltr      CMS
  ------------------------------------------------------------------------------------------------------------------------------
  19#1                       7.46       0.00       0.00       5.44       1.60       0.00       1.60        1.10     0.56   0.215
  18#1                       7.46       0.00       0.00       5.44       1.60       0.00       1.60        1.46     0.56   0.214
  
  
  ******************
  Node Depth Summary
  ******************
  
  ---------------------------------------------------------------------------------
                                 Average  Maximum  Maximum  Time of Max    Reported
                                   Depth    Depth      HGL   Occurrence   Max Depth
  Node                 Type       Meters   Meters   Meters  days hr:min      Meters
  ---------------------------------------------------------------------------------
  19                   JUNCTION     0.28     2.00   419.90     0  00:27        2.00
  17                   JUNCTION     0.25     1.60   419.40     0  00:28        1.60
  16                   JUNCTION     0.28     1.67   419.36     0  00:30        1.67
  15                   JUNCTION     0.34     1.72   419.32     0  00:31        1.72
  18                   JUNCTION     0.31     1.76   419.42     0  00:35        1.76
  14                   JUNCTION     0.24     1.05   418.55     0  00:30        1.04
  13                   JUNCTION     0.10     0.33   417.63     0  00:35        0.33
  12                   JUNCTION     0.11     0.36   408.76     0  00:35        0.36
  11                   JUNCTION     0.19     1.19   402.99     0  00:36        1.19
  10                   JUNCTION     0.37     1.90   401.20     0  00:29        1.90
  9                    JUNCTION     0.35     1.55   400.45     0  00:29        1.42
  8                    JUNCTION     0.22     0.86   399.71     0  00:32        0.82
  7                    JUNCTION     0.22     0.72   399.29     0  00:33        0.72
  6                    JUNCTION     0.19     0.56   398.98     0  00:33        0.56
  Outfall              OUTFALL      0.00     0.00   398.00     0  00:00        0.00
  
  
  *******************
  Node Inflow Summary
  *******************
  
  -------------------------------------------------------------------------------------------------
                                  Maximum  Maximum                  Lateral       Total        Flow
                                  Lateral    Total  Time of Max      Inflow      Inflow     Balance
                                   Inflow   Inflow   Occurrence      Volume      Volume       Error
  Node                 Type           CMS      CMS  days hr:min    10^6 ltr    10^6 ltr     Percent
  -------------------------------------------------------------------------------------------------
  19                   JUNCTION     0.562    0.562     0  00:30         1.1         1.1       0.137
  17                   JUNCTION     0.000    0.483     0  00:27           0        1.05       0.037
  16                   JUNCTION     0.000    0.466     0  00:27           0       0.964       0.203
  15                   JUNCTION     0.000    0.871     0  00:35           0        2.41       0.129
  18                   JUNCTION     0.565    0.565     0  00:35        1.46        1.46       0.378
  14                   JUNCTION     0.000    0.871     0  00:35           0        2.41      -0.023
  13                   JUNCTION     0.000    0.871     0  00:35           0        2.41       0.031
  12                   JUNCTION     0.000    0.871     0  00:35           0        2.41       0.105
  11                   JUNCTION     0.000    0.871     0  00:35           0        2.41       0.114
  10                   JUNCTION     0.000    0.869     0  00:36           0         2.4      -0.160
  9                    JUNCTION     0.000    0.798     0  00:29           0        2.24       0.031
  8                    JUNCTION     0.000    0.758     0  00:30           0        2.24       0.020
  7                    JUNCTION     0.000    0.707     0  00:32           0        2.24       0.052
  6                    JUNCTION     0.000    0.693     0  00:34           0        2.24       0.040
  Outfall              OUTFALL      0.000    0.693     0  00:34           0        2.24       0.000
  
  
  **********************
  Node Surcharge Summary
  **********************
  
  Surcharging occurs when water rises above the top of the highest conduit.
  ---------------------------------------------------------------------
                                               Max. Height   Min. Depth
                                   Hours       Above Crown    Below Rim
  Node                 Type      Surcharged         Meters       Meters
  ---------------------------------------------------------------------
  19                   JUNCTION        0.62          1.550        0.000
  17                   JUNCTION        0.41          0.850        0.000
  16                   JUNCTION        0.45          0.918        2.642
  15                   JUNCTION        0.50          0.967        4.133
  18                   JUNCTION        0.61          1.162        4.178
  14                   JUNCTION        0.33          0.300        5.250
  10                   JUNCTION        0.60          1.200        0.000
  9                    JUNCTION        0.53          0.798        1.552
  8                    JUNCTION        0.33          0.107        0.293
  
  
  *********************
  Node Flooding Summary
  *********************
  
  Flooding refers to all water that overflows a node, whether it ponds or not.
  --------------------------------------------------------------------------
                                                             Total   Maximum
                                 Maximum   Time of Max       Flood    Ponded
                        Hours       Rate    Occurrence      Volume     Depth
  Node                 Flooded       CMS   days hr:min    10^6 ltr    Meters
  --------------------------------------------------------------------------
  19                      0.18     0.111      0  00:30       0.046     0.000
  17                      0.24     0.144      0  00:35       0.089     0.000
  10                      0.36     0.176      0  00:36       0.167     0.000
  
  
  ***********************
  Outfall Loading Summary
  ***********************
  
  -----------------------------------------------------------
                         Flow       Avg       Max       Total
                         Freq      Flow      Flow      Volume
  Outfall Node           Pcnt       CMS       CMS    10^6 ltr
  -----------------------------------------------------------
  Outfall               96.61     0.168     0.693       2.238
  -----------------------------------------------------------
  System                96.61     0.168     0.693       2.238
  
  
  ********************
  Link Flow Summary
  ********************
  
  -----------------------------------------------------------------------------
                                 Maximum  Time of Max   Maximum    Max/    Max/
                                  |Flow|   Occurrence   |Veloc|    Full    Full
  Link                 Type          CMS  days hr:min     m/sec    Flow   Depth
  -----------------------------------------------------------------------------
  24                   CONDUIT     0.483     0  00:27      3.04    2.39    1.00
  22                   CONDUIT     0.466     0  00:27      1.27    0.99    1.00
  28                   CONDUIT     0.453     0  00:27      1.02    0.98    1.00
  30                   CONDUIT     0.565     0  00:35      2.00    1.33    1.00
  51                   CONDUIT     0.871     0  00:35      1.97    2.78    1.00
  54                   CONDUIT     0.871     0  00:35      2.56    1.88    0.72
  56                   CONDUIT     0.871     0  00:35      5.44    0.59    0.58
  58                   CONDUIT     0.871     0  00:35      4.90    0.67    0.79
  62                   CONDUIT     0.869     0  00:36      3.32    0.86    1.00
  63                   CONDUIT     0.798     0  00:29      2.82    1.85    1.00
  64                   CONDUIT     0.758     0  00:30      2.22    3.49    1.00
  69                   CONDUIT     0.693     0  00:34      2.05    1.36    0.71
  71                   CONDUIT     0.693     0  00:34      1.74    1.38    0.85
  72                   CONDUIT     0.707     0  00:32      1.93    1.24    0.98
  
  
  ***************************
  Flow Classification Summary
  ***************************
  
  -------------------------------------------------------------------------------------
                      Adjusted    ---------- Fraction of Time in Flow Class ---------- 
                       /Actual         Up    Down  Sub   Sup   Up    Down  Norm  Inlet 
  Conduit               Length    Dry  Dry   Dry   Crit  Crit  Crit  Crit  Ltd   Ctrl  
  -------------------------------------------------------------------------------------
  24                      1.00   0.03  0.00  0.00  0.91  0.06  0.00  0.00  0.28  0.00
  22                      1.00   0.03  0.00  0.00  0.96  0.00  0.00  0.00  0.00  0.00
  28                      1.00   0.03  0.00  0.00  0.97  0.00  0.00  0.00  0.47  0.00
  30                      1.00   0.03  0.00  0.00  0.96  0.01  0.00  0.00  0.69  0.00
  51                      1.00   0.03  0.00  0.00  0.97  0.00  0.00  0.00  0.00  0.00
  54                      1.00   0.03  0.00  0.00  0.62  0.35  0.00  0.00  0.00  0.00
  56                      1.00   0.04  0.00  0.00  0.00  0.96  0.00  0.00  0.95  0.00
  58                      1.00   0.04  0.00  0.00  0.00  0.03  0.00  0.93  0.03  0.00
  62                      1.00   0.04  0.00  0.00  0.04  0.06  0.00  0.86  0.05  0.00
  63                      1.00   0.04  0.00  0.00  0.96  0.00  0.00  0.00  0.87  0.00
  64                      1.00   0.04  0.00  0.00  0.96  0.00  0.00  0.00  0.00  0.00
  69                      1.00   0.05  0.00  0.00  0.00  0.00  0.00  0.95  0.00  0.00
  71                      1.00   0.05  0.00  0.00  0.95  0.00  0.00  0.00  0.00  0.00
  72                      1.00   0.04  0.00  0.00  0.95  0.00  0.00  0.00  0.00  0.00
  
  
  *************************
  Conduit Surcharge Summary
  *************************
  
  ----------------------------------------------------------------------------
                                                           Hours        Hours 
                         --------- Hours Full --------   Above Full   Capacity
  Conduit                Both Ends  Upstream  Dnstream   Normal Flow   Limited
  ----------------------------------------------------------------------------
  24                          0.60      0.62      0.64      0.55         0.52
  22                          0.41      0.41      0.45      0.01         0.02
  28                          0.45      0.45      0.50      0.01         0.02
  30                          0.61      0.61      0.66      0.30         0.29
  51                          0.33      0.50      0.33      0.74         0.33
  54                          0.01      0.33      0.01      0.57         0.01
  62                          0.34      0.34      0.60      0.01         0.01
  63                          0.64      0.65      0.72      0.60         0.58
  64                          0.33      0.53      0.33      0.89         0.33
  69                          0.01      0.01      0.01      0.49         0.01
  71                          0.01      0.01      0.01      0.50         0.01
  72                          0.01      0.33      0.01      0.44         0.01
  

  Analysis begun on:  Tue Jun 23 21:01:10 2026
  Analysis ended on:  Tue Jun 23 21:01:10 2026
  Total elapsed time: < 1 sec