
  EPA STORM WATER MANAGEMENT MODEL - VERSION 5.2 (Build 5.2.4)
  ------------------------------------------------------------

  Terreno parzialmente saturo 
  WARNING 04: minimum elevation drop used for Conduit 57
  WARNING 04: minimum elevation drop used for Conduit 58
  WARNING 04: minimum elevation drop used for Conduit 65
  WARNING 04: minimum elevation drop used for Conduit 68
  WARNING 04: minimum elevation drop used for Conduit 69
  WARNING 04: minimum elevation drop used for Conduit 70
  WARNING 04: minimum elevation drop used for Conduit 72
  WARNING 04: minimum elevation drop used for Conduit 73
  WARNING 04: minimum elevation drop used for Conduit 74
  WARNING 04: minimum elevation drop used for Conduit 75
  WARNING 04: minimum elevation drop used for Conduit 77
  WARNING 04: minimum elevation drop used for Conduit 205
  WARNING 04: minimum elevation drop used for Conduit 273
  WARNING 04: minimum elevation drop used for Conduit 353
  WARNING 04: minimum elevation drop used for Conduit 508
  WARNING 04: minimum elevation drop used for Conduit 636
  WARNING 04: minimum elevation drop used for Conduit 2064
  WARNING 04: minimum elevation drop used for Conduit 2096
  WARNING 04: minimum elevation drop used for Conduit 2097
  WARNING 04: minimum elevation drop used for Conduit 2098
  WARNING 04: minimum elevation drop used for Conduit 2099
  WARNING 04: minimum elevation drop used for Conduit 2100
  WARNING 04: minimum elevation drop used for Conduit 2103
  WARNING 04: minimum elevation drop used for Conduit 2104
  WARNING 04: minimum elevation drop used for Conduit 2125
  WARNING 04: minimum elevation drop used for Conduit 2126
  WARNING 04: minimum elevation drop used for Conduit 2157
  WARNING 04: minimum elevation drop used for Conduit 2189
  WARNING 04: minimum elevation drop used for Conduit 2328
  WARNING 04: minimum elevation drop used for Conduit 2366
  WARNING 04: minimum elevation drop used for Conduit 2370
  WARNING 04: minimum elevation drop used for Conduit 2392
  WARNING 04: minimum elevation drop used for Conduit 2398
  WARNING 04: minimum elevation drop used for Conduit 2409
  WARNING 04: minimum elevation drop used for Conduit 2411
  WARNING 04: minimum elevation drop used for Conduit 2412
  WARNING 04: minimum elevation drop used for Conduit 2415
  WARNING 04: minimum elevation drop used for Conduit 2464
  WARNING 04: minimum elevation drop used for Conduit 2469
  WARNING 04: minimum elevation drop used for Conduit 4191
  WARNING 04: minimum elevation drop used for Conduit 4192
  WARNING 04: minimum elevation drop used for Conduit 4234
  WARNING 04: minimum elevation drop used for Conduit 4235
  WARNING 04: minimum elevation drop used for Conduit 4238
  WARNING 04: minimum elevation drop used for Conduit 4239
  WARNING 04: minimum elevation drop used for Conduit 4242
  WARNING 04: minimum elevation drop used for Conduit 4243
  WARNING 04: minimum elevation drop used for Conduit 4247
  WARNING 04: minimum elevation drop used for Conduit 4248
  WARNING 04: minimum elevation drop used for Conduit 4267
  WARNING 04: minimum elevation drop used for Conduit 4268
  WARNING 04: minimum elevation drop used for Conduit 4289
  WARNING 04: minimum elevation drop used for Conduit 4290
  WARNING 04: minimum elevation drop used for Conduit 4299
  WARNING 04: minimum elevation drop used for Conduit 4313
  WARNING 04: minimum elevation drop used for Conduit 4320
  WARNING 04: minimum elevation drop used for Conduit 4327
  WARNING 04: minimum elevation drop used for Conduit 4344
  WARNING 04: minimum elevation drop used for Conduit 4445
  WARNING 04: minimum elevation drop used for Conduit 4446
  WARNING 04: minimum elevation drop used for Conduit 4496
  WARNING 04: minimum elevation drop used for Conduit 4497
  WARNING 04: minimum elevation drop used for Conduit 4498
  WARNING 04: minimum elevation drop used for Conduit 4500
  WARNING 04: minimum elevation drop used for Conduit 4501
  WARNING 04: minimum elevation drop used for Conduit 4502
  WARNING 04: minimum elevation drop used for Conduit 4549
  WARNING 10: crest elevation raised to downstream invert for regulator Link boretto_chiav1
  WARNING 10: crest elevation raised to downstream invert for regulator Link boretto_chiav2
  WARNING 10: crest elevation raised to downstream invert for regulator Link boretto_chiav3
  WARNING 10: crest elevation raised to downstream invert for regulator Link boretto_chiav4
  WARNING 10: crest elevation raised to downstream invert for regulator Link boretto_controchiav1
  WARNING 10: crest elevation raised to downstream invert for regulator Link boretto_controchiav2
  WARNING 10: crest elevation raised to downstream invert for regulator Link boretto_controchiav3
  WARNING 10: crest elevation raised to downstream invert for regulator Link boretto_controchiav4
  WARNING 10: crest elevation raised to downstream invert for regulator Link boretto_controchiav5
  WARNING 10: crest elevation raised to downstream invert for regulator Link boretto_controchiav6
  WARNING 10: crest elevation raised to downstream invert for regulator Link goleto-panconi1
  WARNING 10: crest elevation raised to downstream invert for regulator Link goleto-panconi2
  WARNING 10: crest elevation raised to downstream invert for regulator Link goleto-panconi3
  WARNING 10: crest elevation raised to downstream invert for regulator Link goleto-panconi4
  WARNING 10: crest elevation raised to downstream invert for regulator Link goleto-panconi5
  WARNING 10: crest elevation raised to downstream invert for regulator Link goleto-panconi6
  WARNING 10: crest elevation raised to downstream invert for regulator Link bruciati_sv
  WARNING 10: crest elevation raised to downstream invert for regulator Link tresinaro_inv1
  WARNING 10: crest elevation raised to downstream invert for regulator Link tresinaro_inv2
  WARNING 10: crest elevation raised to downstream invert for regulator Link tresinaro_inv3
  WARNING 10: crest elevation raised to downstream invert for regulator Link tresinaro_sv
  WARNING 02: maximum depth increased for Node 2
  WARNING 02: maximum depth increased for Node 6
  WARNING 02: maximum depth increased for Node 8
  WARNING 02: maximum depth increased for Node 10
  WARNING 02: maximum depth increased for Node 13
  WARNING 02: maximum depth increased for Node 15
  WARNING 02: maximum depth increased for Node 17
  WARNING 02: maximum depth increased for Node 22
  WARNING 02: maximum depth increased for Node 25
  WARNING 02: maximum depth increased for Node 36
  WARNING 02: maximum depth increased for Node 37
  WARNING 02: maximum depth increased for Node 38
  WARNING 02: maximum depth increased for Node 46
  WARNING 02: maximum depth increased for Node 47
  WARNING 02: maximum depth increased for Node 50
  WARNING 02: maximum depth increased for Node 56
  WARNING 02: maximum depth increased for Node 59
  WARNING 02: maximum depth increased for Node 60
  WARNING 02: maximum depth increased for Node 62
  WARNING 02: maximum depth increased for Node 64
  WARNING 02: maximum depth increased for Node 67
  WARNING 02: maximum depth increased for Node 69
  WARNING 02: maximum depth increased for Node 74
  WARNING 02: maximum depth increased for Node 83
  WARNING 02: maximum depth increased for Node 86
  WARNING 02: maximum depth increased for Node 87
  WARNING 02: maximum depth increased for Node 91
  WARNING 02: maximum depth increased for Node 92
  WARNING 02: maximum depth increased for Node 94
  WARNING 02: maximum depth increased for Node 95
  WARNING 02: maximum depth increased for Node 96
  WARNING 02: maximum depth increased for Node 97
  WARNING 02: maximum depth increased for Node 98
  WARNING 02: maximum depth increased for Node 102
  WARNING 02: maximum depth increased for Node 105
  WARNING 02: maximum depth increased for Node 106
  WARNING 02: maximum depth increased for Node 107
  WARNING 02: maximum depth increased for Node 109
  WARNING 02: maximum depth increased for Node 110
  WARNING 02: maximum depth increased for Node 111
  WARNING 02: maximum depth increased for Node 112
  WARNING 02: maximum depth increased for Node 113
  WARNING 02: maximum depth increased for Node 114
  WARNING 02: maximum depth increased for Node 115
  WARNING 02: maximum depth increased for Node 116
  WARNING 02: maximum depth increased for Node 117
  WARNING 02: maximum depth increased for Node 118
  WARNING 02: maximum depth increased for Node 119
  WARNING 02: maximum depth increased for Node 120
  WARNING 02: maximum depth increased for Node 121
  WARNING 02: maximum depth increased for Node 122
  WARNING 02: maximum depth increased for Node 123
  WARNING 02: maximum depth increased for Node 124
  WARNING 02: maximum depth increased for Node 127
  WARNING 02: maximum depth increased for Node 130
  WARNING 02: maximum depth increased for Node 131
  WARNING 02: maximum depth increased for Node 132
  WARNING 02: maximum depth increased for Node 133
  WARNING 02: maximum depth increased for Node 134
  WARNING 02: maximum depth increased for Node 135
  WARNING 02: maximum depth increased for Node 136
  WARNING 02: maximum depth increased for Node 137
  WARNING 02: maximum depth increased for Node 138
  WARNING 02: maximum depth increased for Node 161_
  WARNING 02: maximum depth increased for Node 162_
  WARNING 02: maximum depth increased for Node 163_
  WARNING 02: maximum depth increased for Node 164
  WARNING 02: maximum depth increased for Node 166
  WARNING 02: maximum depth increased for Node 167
  WARNING 02: maximum depth increased for Node 168
  WARNING 02: maximum depth increased for Node 169
  WARNING 02: maximum depth increased for Node 170
  WARNING 02: maximum depth increased for Node 171
  WARNING 02: maximum depth increased for Node 172
  WARNING 02: maximum depth increased for Node 173
  WARNING 02: maximum depth increased for Node 174
  WARNING 02: maximum depth increased for Node 175
  WARNING 02: maximum depth increased for Node 176
  WARNING 02: maximum depth increased for Node 177
  WARNING 02: maximum depth increased for Node 178
  WARNING 02: maximum depth increased for Node 179
  WARNING 02: maximum depth increased for Node 180
  WARNING 02: maximum depth increased for Node 181
  WARNING 02: maximum depth increased for Node 182
  WARNING 02: maximum depth increased for Node 183
  WARNING 02: maximum depth increased for Node 184
  WARNING 02: maximum depth increased for Node 185
  WARNING 02: maximum depth increased for Node 186
  WARNING 02: maximum depth increased for Node 198
  WARNING 02: maximum depth increased for Node 218
  WARNING 02: maximum depth increased for Node 219
  WARNING 02: maximum depth increased for Node 220
  WARNING 02: maximum depth increased for Node 221
  WARNING 02: maximum depth increased for Node 222
  WARNING 02: maximum depth increased for Node 223
  WARNING 02: maximum depth increased for Node 224
  WARNING 02: maximum depth increased for Node 225
  WARNING 02: maximum depth increased for Node 226
  WARNING 02: maximum depth increased for Node 227
  WARNING 02: maximum depth increased for Node 228
  WARNING 02: maximum depth increased for Node 231
  WARNING 02: maximum depth increased for Node 232
  WARNING 02: maximum depth increased for Node 260
  WARNING 02: maximum depth increased for Node 284
  WARNING 02: maximum depth increased for Node 285
  WARNING 02: maximum depth increased for Node 286
  WARNING 02: maximum depth increased for Node 287
  WARNING 02: maximum depth increased for Node 288
  WARNING 02: maximum depth increased for Node 289
  WARNING 02: maximum depth increased for Node 290
  WARNING 02: maximum depth increased for Node 291
  WARNING 02: maximum depth increased for Node 292
  WARNING 02: maximum depth increased for Node 293
  WARNING 02: maximum depth increased for Node 294
  WARNING 02: maximum depth increased for Node 295
  WARNING 02: maximum depth increased for Node 296
  WARNING 02: maximum depth increased for Node 297
  WARNING 02: maximum depth increased for Node 298
  WARNING 02: maximum depth increased for Node 299
  WARNING 02: maximum depth increased for Node 300
  WARNING 02: maximum depth increased for Node 301
  WARNING 02: maximum depth increased for Node 302
  WARNING 02: maximum depth increased for Node 303
  WARNING 02: maximum depth increased for Node 304
  WARNING 02: maximum depth increased for Node 305
  WARNING 02: maximum depth increased for Node 306
  WARNING 02: maximum depth increased for Node 307
  WARNING 02: maximum depth increased for Node 308
  WARNING 02: maximum depth increased for Node 309
  WARNING 02: maximum depth increased for Node 310
  WARNING 02: maximum depth increased for Node 311
  WARNING 02: maximum depth increased for Node 312
  WARNING 02: maximum depth increased for Node 313
  WARNING 02: maximum depth increased for Node 314
  WARNING 02: maximum depth increased for Node 340
  WARNING 02: maximum depth increased for Node 341
  WARNING 02: maximum depth increased for Node 342
  WARNING 02: maximum depth increased for Node 345
  WARNING 02: maximum depth increased for Node 346
  WARNING 02: maximum depth increased for Node 347
  WARNING 02: maximum depth increased for Node 348
  WARNING 02: maximum depth increased for Node 349
  WARNING 02: maximum depth increased for Node 350
  WARNING 02: maximum depth increased for Node 351
  WARNING 02: maximum depth increased for Node 352
  WARNING 02: maximum depth increased for Node 354
  WARNING 02: maximum depth increased for Node 355
  WARNING 02: maximum depth increased for Node 356
  WARNING 02: maximum depth increased for Node 357
  WARNING 02: maximum depth increased for Node 370
  WARNING 02: maximum depth increased for Node 371
  WARNING 02: maximum depth increased for Node 372
  WARNING 02: maximum depth increased for Node 373
  WARNING 02: maximum depth increased for Node 374
  WARNING 02: maximum depth increased for Node 375
  WARNING 02: maximum depth increased for Node 376
  WARNING 02: maximum depth increased for Node 377
  WARNING 02: maximum depth increased for Node 378
  WARNING 02: maximum depth increased for Node 379
  WARNING 02: maximum depth increased for Node 380
  WARNING 02: maximum depth increased for Node 381
  WARNING 02: maximum depth increased for Node 382
  WARNING 02: maximum depth increased for Node 383
  WARNING 02: maximum depth increased for Node 384
  WARNING 02: maximum depth increased for Node 385
  WARNING 02: maximum depth increased for Node 386
  WARNING 02: maximum depth increased for Node 387
  WARNING 02: maximum depth increased for Node 388
  WARNING 02: maximum depth increased for Node 389
  WARNING 02: maximum depth increased for Node 390
  WARNING 02: maximum depth increased for Node 391
  WARNING 02: maximum depth increased for Node 392
  WARNING 02: maximum depth increased for Node 393
  WARNING 02: maximum depth increased for Node 394
  WARNING 02: maximum depth increased for Node 395
  WARNING 02: maximum depth increased for Node 398
  WARNING 02: maximum depth increased for Node 399
  WARNING 02: maximum depth increased for Node 400
  WARNING 02: maximum depth increased for Node 401
  WARNING 02: maximum depth increased for Node 406
  WARNING 02: maximum depth increased for Node 407
  WARNING 02: maximum depth increased for Node 412
  WARNING 02: maximum depth increased for Node 413
  WARNING 02: maximum depth increased for Node 415
  WARNING 02: maximum depth increased for Node 418
  WARNING 02: maximum depth increased for Node 422
  WARNING 02: maximum depth increased for Node 423
  WARNING 02: maximum depth increased for Node 426
  WARNING 02: maximum depth increased for Node 427
  WARNING 02: maximum depth increased for Node 455
  WARNING 02: maximum depth increased for Node 456
  WARNING 02: maximum depth increased for Node 457
  WARNING 02: maximum depth increased for Node 458
  WARNING 02: maximum depth increased for Node 459
  WARNING 02: maximum depth increased for Node 460
  WARNING 02: maximum depth increased for Node 461
  WARNING 02: maximum depth increased for Node 476
  WARNING 02: maximum depth increased for Node 480
  WARNING 02: maximum depth increased for Node 481
  WARNING 02: maximum depth increased for Node 487
  WARNING 02: maximum depth increased for Node 488
  WARNING 02: maximum depth increased for Node 489
  WARNING 02: maximum depth increased for Node 500
  WARNING 02: maximum depth increased for Node 501
  WARNING 02: maximum depth increased for Node 502
  WARNING 02: maximum depth increased for Node 503
  WARNING 02: maximum depth increased for Node 506
  WARNING 02: maximum depth increased for Node 507
  WARNING 02: maximum depth increased for Node 508
  WARNING 02: maximum depth increased for Node 525
  WARNING 02: maximum depth increased for Node 531
  WARNING 02: maximum depth increased for Node 532
  WARNING 02: maximum depth increased for Node 533
  WARNING 02: maximum depth increased for Node 534
  WARNING 02: maximum depth increased for Node 535
  WARNING 02: maximum depth increased for Node 536
  WARNING 02: maximum depth increased for Node 537
  WARNING 02: maximum depth increased for Node 538
  WARNING 02: maximum depth increased for Node 539
  WARNING 02: maximum depth increased for Node 540
  WARNING 02: maximum depth increased for Node 541
  WARNING 02: maximum depth increased for Node 542
  WARNING 02: maximum depth increased for Node 543
  WARNING 02: maximum depth increased for Node 544
  WARNING 02: maximum depth increased for Node 545
  WARNING 02: maximum depth increased for Node 546
  WARNING 02: maximum depth increased for Node 547
  WARNING 02: maximum depth increased for Node 548
  WARNING 02: maximum depth increased for Node 549
  WARNING 02: maximum depth increased for Node 550
  WARNING 02: maximum depth increased for Node 551
  WARNING 02: maximum depth increased for Node 552
  WARNING 02: maximum depth increased for Node 556
  WARNING 02: maximum depth increased for Node 557
  WARNING 02: maximum depth increased for Node 558
  WARNING 02: maximum depth increased for Node 559
  WARNING 02: maximum depth increased for Node 560
  WARNING 02: maximum depth increased for Node 561
  WARNING 02: maximum depth increased for Node 562
  WARNING 02: maximum depth increased for Node 563
  WARNING 02: maximum depth increased for Node 565
  WARNING 02: maximum depth increased for Node 566
  WARNING 02: maximum depth increased for Node 567
  WARNING 02: maximum depth increased for Node 587
  WARNING 02: maximum depth increased for Node 588
  WARNING 02: maximum depth increased for Node 589
  WARNING 02: maximum depth increased for Node 590
  WARNING 02: maximum depth increased for Node 591
  WARNING 02: maximum depth increased for Node 592
  WARNING 02: maximum depth increased for Node 593
  WARNING 02: maximum depth increased for Node 599
  WARNING 02: maximum depth increased for Node 600
  WARNING 02: maximum depth increased for Node 603
  WARNING 02: maximum depth increased for Node 604
  WARNING 02: maximum depth increased for Node 605
  WARNING 02: maximum depth increased for Node 606
  WARNING 02: maximum depth increased for Node 609
  WARNING 02: maximum depth increased for Node 610
  WARNING 02: maximum depth increased for Node 611
  WARNING 02: maximum depth increased for Node 612
  WARNING 02: maximum depth increased for Node 615
  WARNING 02: maximum depth increased for Node 616
  WARNING 02: maximum depth increased for Node 617
  WARNING 02: maximum depth increased for Node 619
  WARNING 02: maximum depth increased for Node 640
  WARNING 02: maximum depth increased for Node 656
  WARNING 02: maximum depth increased for Node 659
  WARNING 02: maximum depth increased for Node 660
  WARNING 02: maximum depth increased for Node 661
  WARNING 02: maximum depth increased for Node 662
  WARNING 02: maximum depth increased for Node 663
  WARNING 02: maximum depth increased for Node 664
  WARNING 02: maximum depth increased for Node 665
  WARNING 02: maximum depth increased for Node 666
  WARNING 02: maximum depth increased for Node 667
  WARNING 02: maximum depth increased for Node 670
  WARNING 02: maximum depth increased for Node 702
  WARNING 02: maximum depth increased for Node 703
  WARNING 02: maximum depth increased for Node 704
  WARNING 02: maximum depth increased for Node 705
  WARNING 02: maximum depth increased for Node 706
  WARNING 02: maximum depth increased for Node 708
  WARNING 02: maximum depth increased for Node 709
  WARNING 02: maximum depth increased for Node 710
  WARNING 02: maximum depth increased for Node 711
  WARNING 02: maximum depth increased for Node 712
  WARNING 02: maximum depth increased for Node 713
  WARNING 02: maximum depth increased for Node 714
  WARNING 02: maximum depth increased for Node 715
  WARNING 02: maximum depth increased for Node 716
  WARNING 02: maximum depth increased for Node 717_node
  WARNING 02: maximum depth increased for Node 718
  WARNING 02: maximum depth increased for Node 719
  WARNING 02: maximum depth increased for Node 720
  WARNING 02: maximum depth increased for Node 721
  WARNING 02: maximum depth increased for Node 722
  WARNING 02: maximum depth increased for Node 723
  WARNING 02: maximum depth increased for Node 724
  WARNING 02: maximum depth increased for Node 725
  WARNING 02: maximum depth increased for Node 726
  WARNING 02: maximum depth increased for Node 727
  WARNING 02: maximum depth increased for Node 728
  WARNING 02: maximum depth increased for Node 729
  WARNING 02: maximum depth increased for Node 730
  WARNING 02: maximum depth increased for Node 731
  WARNING 02: maximum depth increased for Node 732
  WARNING 02: maximum depth increased for Node 733
  WARNING 02: maximum depth increased for Node 734
  WARNING 02: maximum depth increased for Node 735
  WARNING 02: maximum depth increased for Node 736
  WARNING 02: maximum depth increased for Node 737
  WARNING 02: maximum depth increased for Node 738
  WARNING 02: maximum depth increased for Node 739
  WARNING 02: maximum depth increased for Node 740
  WARNING 02: maximum depth increased for Node 741
  WARNING 02: maximum depth increased for Node 742
  WARNING 02: maximum depth increased for Node 743
  WARNING 02: maximum depth increased for Node 744
  WARNING 02: maximum depth increased for Node 747
  WARNING 02: maximum depth increased for Node 748
  WARNING 02: maximum depth increased for Node 749
  WARNING 02: maximum depth increased for Node 750
  WARNING 02: maximum depth increased for Node 751
  WARNING 02: maximum depth increased for Node 752
  WARNING 02: maximum depth increased for Node 754
  WARNING 02: maximum depth increased for Node 755
  WARNING 02: maximum depth increased for Node 756
  WARNING 02: maximum depth increased for Node 757
  WARNING 02: maximum depth increased for Node 758
  WARNING 02: maximum depth increased for Node 759
  WARNING 02: maximum depth increased for Node 760
  WARNING 02: maximum depth increased for Node 761
  WARNING 02: maximum depth increased for Node 763
  WARNING 02: maximum depth increased for Node 764
  WARNING 02: maximum depth increased for Node 765
  WARNING 02: maximum depth increased for Node 766
  WARNING 02: maximum depth increased for Node 767
  WARNING 02: maximum depth increased for Node 768
  WARNING 02: maximum depth increased for Node 772
  WARNING 02: maximum depth increased for Node 773
  WARNING 02: maximum depth increased for Node 774
  WARNING 02: maximum depth increased for Node 775
  WARNING 02: maximum depth increased for Node 776
  WARNING 02: maximum depth increased for Node 777
  WARNING 02: maximum depth increased for Node 778
  WARNING 02: maximum depth increased for Node 779
  WARNING 02: maximum depth increased for Node 780
  WARNING 02: maximum depth increased for Node 786
  WARNING 02: maximum depth increased for Node 791
  WARNING 02: maximum depth increased for Node 792
  WARNING 02: maximum depth increased for Node 793
  WARNING 02: maximum depth increased for Node 794
  WARNING 02: maximum depth increased for Node 795
  WARNING 02: maximum depth increased for Node 796
  WARNING 02: maximum depth increased for Node 797
  WARNING 02: maximum depth increased for Node 798
  WARNING 02: maximum depth increased for Node 799
  WARNING 02: maximum depth increased for Node 800
  WARNING 02: maximum depth increased for Node 809
  WARNING 02: maximum depth increased for Node 810
  WARNING 02: maximum depth increased for Node 811
  WARNING 02: maximum depth increased for Node 812
  WARNING 02: maximum depth increased for Node 813
  WARNING 02: maximum depth increased for Node 814
  WARNING 02: maximum depth increased for Node 815
  WARNING 02: maximum depth increased for Node 816
  WARNING 02: maximum depth increased for Node 818
  WARNING 02: maximum depth increased for Node 819
  WARNING 02: maximum depth increased for Node 820
  WARNING 02: maximum depth increased for Node 821
  WARNING 02: maximum depth increased for Node 823
  WARNING 02: maximum depth increased for Node 824
  WARNING 02: maximum depth increased for Node 825
  WARNING 02: maximum depth increased for Node 826
  WARNING 02: maximum depth increased for Node 827
  WARNING 02: maximum depth increased for Node 828
  WARNING 02: maximum depth increased for Node 829
  WARNING 02: maximum depth increased for Node 830
  WARNING 02: maximum depth increased for Node 831
  WARNING 02: maximum depth increased for Node 832
  WARNING 02: maximum depth increased for Node 833
  WARNING 02: maximum depth increased for Node 834
  WARNING 02: maximum depth increased for Node 835
  WARNING 02: maximum depth increased for Node 836
  WARNING 02: maximum depth increased for Node 837
  WARNING 02: maximum depth increased for Node 838
  WARNING 02: maximum depth increased for Node 839
  WARNING 02: maximum depth increased for Node 840
  WARNING 02: maximum depth increased for Node 841
  WARNING 02: maximum depth increased for Node 842
  WARNING 02: maximum depth increased for Node 843
  WARNING 02: maximum depth increased for Node 844
  WARNING 02: maximum depth increased for Node 845
  WARNING 02: maximum depth increased for Node 848
  WARNING 02: maximum depth increased for Node 849
  WARNING 02: maximum depth increased for Node 850
  WARNING 02: maximum depth increased for Node 851
  WARNING 02: maximum depth increased for Node 852
  WARNING 02: maximum depth increased for Node 853
  WARNING 02: maximum depth increased for Node 854
  WARNING 02: maximum depth increased for Node 856
  WARNING 02: maximum depth increased for Node 857
  WARNING 02: maximum depth increased for Node 858
  WARNING 02: maximum depth increased for Node 859
  WARNING 02: maximum depth increased for Node 860
  WARNING 02: maximum depth increased for Node 861
  WARNING 02: maximum depth increased for Node 862
  WARNING 02: maximum depth increased for Node 863
  WARNING 02: maximum depth increased for Node 865
  WARNING 02: maximum depth increased for Node 866
  WARNING 02: maximum depth increased for Node 867
  WARNING 02: maximum depth increased for Node 868
  WARNING 02: maximum depth increased for Node 869
  WARNING 02: maximum depth increased for Node 870
  WARNING 02: maximum depth increased for Node 871
  WARNING 02: maximum depth increased for Node 872
  WARNING 02: maximum depth increased for Node 875
  WARNING 02: maximum depth increased for Node 876
  WARNING 02: maximum depth increased for Node 881
  WARNING 02: maximum depth increased for Node 882
  WARNING 02: maximum depth increased for Node 883
  WARNING 02: maximum depth increased for Node 884
  WARNING 02: maximum depth increased for Node 885
  WARNING 02: maximum depth increased for Node 886
  WARNING 02: maximum depth increased for Node 887
  WARNING 02: maximum depth increased for Node 888
  WARNING 02: maximum depth increased for Node 889
  WARNING 02: maximum depth increased for Node 890
  WARNING 02: maximum depth increased for Node 891
  WARNING 02: maximum depth increased for Node 892
  WARNING 02: maximum depth increased for Node 893
  WARNING 02: maximum depth increased for Node 894
  WARNING 02: maximum depth increased for Node 895
  WARNING 02: maximum depth increased for Node 896
  WARNING 02: maximum depth increased for Node 897
  WARNING 02: maximum depth increased for Node 898
  WARNING 02: maximum depth increased for Node 899
  WARNING 02: maximum depth increased for Node 900
  WARNING 02: maximum depth increased for Node 901
  WARNING 02: maximum depth increased for Node 902
  WARNING 02: maximum depth increased for Node 903
  WARNING 02: maximum depth increased for Node 904
  WARNING 02: maximum depth increased for Node 905
  WARNING 02: maximum depth increased for Node 906
  WARNING 02: maximum depth increased for Node 907
  WARNING 02: maximum depth increased for Node 908
  WARNING 02: maximum depth increased for Node 909
  WARNING 02: maximum depth increased for Node 910
  WARNING 02: maximum depth increased for Node 911
  WARNING 02: maximum depth increased for Node 912
  WARNING 02: maximum depth increased for Node 913
  WARNING 02: maximum depth increased for Node 914
  WARNING 02: maximum depth increased for Node 915
  WARNING 02: maximum depth increased for Node 916
  WARNING 02: maximum depth increased for Node 917
  WARNING 02: maximum depth increased for Node 918
  WARNING 02: maximum depth increased for Node 919
  WARNING 02: maximum depth increased for Node 920
  WARNING 02: maximum depth increased for Node 921
  WARNING 02: maximum depth increased for Node 922
  WARNING 02: maximum depth increased for Node 923
  WARNING 02: maximum depth increased for Node 924
  WARNING 02: maximum depth increased for Node 925
  WARNING 02: maximum depth increased for Node 926
  WARNING 02: maximum depth increased for Node 927
  WARNING 02: maximum depth increased for Node 928
  WARNING 02: maximum depth increased for Node 929
  WARNING 02: maximum depth increased for Node 930
  WARNING 02: maximum depth increased for Node 931
  WARNING 02: maximum depth increased for Node 932
  WARNING 02: maximum depth increased for Node 933
  WARNING 02: maximum depth increased for Node 934
  WARNING 02: maximum depth increased for Node 935
  WARNING 02: maximum depth increased for Node 936
  WARNING 02: maximum depth increased for Node 937
  WARNING 02: maximum depth increased for Node 938
  WARNING 02: maximum depth increased for Node 939
  WARNING 02: maximum depth increased for Node 940
  WARNING 02: maximum depth increased for Node 941
  WARNING 02: maximum depth increased for Node 942
  WARNING 02: maximum depth increased for Node 943
  WARNING 02: maximum depth increased for Node 944
  WARNING 02: maximum depth increased for Node 945
  WARNING 02: maximum depth increased for Node 946
  WARNING 02: maximum depth increased for Node 947
  WARNING 02: maximum depth increased for Node 948
  WARNING 02: maximum depth increased for Node 949
  WARNING 02: maximum depth increased for Node 950
  WARNING 02: maximum depth increased for Node 951
  WARNING 02: maximum depth increased for Node 952
  WARNING 02: maximum depth increased for Node 953
  WARNING 02: maximum depth increased for Node 954
  WARNING 02: maximum depth increased for Node 955
  WARNING 02: maximum depth increased for Node 956
  WARNING 02: maximum depth increased for Node 957
  WARNING 02: maximum depth increased for Node 958
  WARNING 02: maximum depth increased for Node 959
  WARNING 02: maximum depth increased for Node 960
  WARNING 02: maximum depth increased for Node 961
  WARNING 02: maximum depth increased for Node 962
  WARNING 02: maximum depth increased for Node 963
  WARNING 02: maximum depth increased for Node 964
  WARNING 02: maximum depth increased for Node 965
  WARNING 02: maximum depth increased for Node 966
  WARNING 02: maximum depth increased for Node 967
  WARNING 02: maximum depth increased for Node 968
  WARNING 02: maximum depth increased for Node 969
  WARNING 02: maximum depth increased for Node 970
  WARNING 02: maximum depth increased for Node 971
  WARNING 02: maximum depth increased for Node 972
  WARNING 02: maximum depth increased for Node 973
  WARNING 02: maximum depth increased for Node 974
  WARNING 02: maximum depth increased for Node 975
  WARNING 02: maximum depth increased for Node 976
  WARNING 02: maximum depth increased for Node 977
  WARNING 02: maximum depth increased for Node 978
  WARNING 02: maximum depth increased for Node 979
  WARNING 02: maximum depth increased for Node 980
  WARNING 02: maximum depth increased for Node 981
  WARNING 02: maximum depth increased for Node 982
  WARNING 02: maximum depth increased for Node 983
  WARNING 02: maximum depth increased for Node 984
  WARNING 02: maximum depth increased for Node 990
  WARNING 02: maximum depth increased for Node 1001
  WARNING 02: maximum depth increased for Node 1027
  WARNING 02: maximum depth increased for Node 1028
  WARNING 02: maximum depth increased for Node 1036
  WARNING 02: maximum depth increased for Node 1037
  WARNING 02: maximum depth increased for Node 1038
  WARNING 02: maximum depth increased for Node 1039
  WARNING 02: maximum depth increased for Node 1042
  WARNING 02: maximum depth increased for Node 1045
  WARNING 02: maximum depth increased for Node 1115
  WARNING 02: maximum depth increased for Node 1124
  WARNING 02: maximum depth increased for Node 1232
  WARNING 02: maximum depth increased for Node 1237
  WARNING 02: maximum depth increased for Node 1283
  WARNING 02: maximum depth increased for Node 1295
  WARNING 02: maximum depth increased for Node 1331
  WARNING 02: maximum depth increased for Node 1335
  WARNING 02: maximum depth increased for Node 1342
  WARNING 02: maximum depth increased for Node 1355
  WARNING 02: maximum depth increased for Node 1356
  WARNING 02: maximum depth increased for Node 1357
  WARNING 02: maximum depth increased for Node 1358
  WARNING 02: maximum depth increased for Node 1359
  WARNING 02: maximum depth increased for Node 1360
  WARNING 02: maximum depth increased for Node 1361
  WARNING 02: maximum depth increased for Node 1364
  WARNING 02: maximum depth increased for Node 1365
  WARNING 02: maximum depth increased for Node 1366
  WARNING 02: maximum depth increased for Node 1367
  WARNING 02: maximum depth increased for Node 1368
  WARNING 02: maximum depth increased for Node 1369
  WARNING 02: maximum depth increased for Node 1378
  WARNING 02: maximum depth increased for Node 1379
  WARNING 02: maximum depth increased for Node 1380
  WARNING 02: maximum depth increased for Node 1381
  WARNING 02: maximum depth increased for Node 1382
  WARNING 02: maximum depth increased for Node 1383
  WARNING 02: maximum depth increased for Node 1384
  WARNING 02: maximum depth increased for Node 1385
  WARNING 02: maximum depth increased for Node 1386
  WARNING 02: maximum depth increased for Node 1387
  WARNING 02: maximum depth increased for Node 1388
  WARNING 02: maximum depth increased for Node 1389
  WARNING 02: maximum depth increased for Node 1390
  WARNING 02: maximum depth increased for Node 1391
  WARNING 02: maximum depth increased for Node 1392
  WARNING 02: maximum depth increased for Node 1393
  WARNING 02: maximum depth increased for Node 1394
  WARNING 02: maximum depth increased for Node 1395
  WARNING 02: maximum depth increased for Node 1396
  WARNING 02: maximum depth increased for Node 1397
  WARNING 02: maximum depth increased for Node 1398
  WARNING 02: maximum depth increased for Node 1399
  WARNING 02: maximum depth increased for Node 1400
  WARNING 02: maximum depth increased for Node 1401
  WARNING 02: maximum depth increased for Node 1402
  WARNING 02: maximum depth increased for Node 1403
  WARNING 02: maximum depth increased for Node 1404
  WARNING 02: maximum depth increased for Node 1412
  WARNING 02: maximum depth increased for Node 1437
  WARNING 02: maximum depth increased for Node 1439
  WARNING 02: maximum depth increased for Node 1440
  WARNING 02: maximum depth increased for Node 1441
  WARNING 02: maximum depth increased for Node 1462
  WARNING 02: maximum depth increased for Node 1487
  WARNING 02: maximum depth increased for Node 1543
  WARNING 02: maximum depth increased for Node 1595
  WARNING 02: maximum depth increased for Node 1598
  WARNING 02: maximum depth increased for Node 1603
  WARNING 02: maximum depth increased for Node 1604
  WARNING 02: maximum depth increased for Node 1605
  WARNING 02: maximum depth increased for Node 1606
  WARNING 02: maximum depth increased for Node 1607
  WARNING 02: maximum depth increased for Node 1608
  WARNING 02: maximum depth increased for Node 1625
  WARNING 02: maximum depth increased for Node 1626
  WARNING 02: maximum depth increased for Node 1627
  WARNING 02: maximum depth increased for Node 1628
  WARNING 02: maximum depth increased for Node 1688
  WARNING 02: maximum depth increased for Node 1704
  WARNING 02: maximum depth increased for Node 1712
  WARNING 02: maximum depth increased for Node 1732
  WARNING 02: maximum depth increased for Node 1741
  WARNING 02: maximum depth increased for Node 1747
  WARNING 02: maximum depth increased for Node 1781
  WARNING 02: maximum depth increased for Node 1812
  WARNING 02: maximum depth increased for Node 1835
  WARNING 02: maximum depth increased for Node 1836
  WARNING 02: maximum depth increased for Node 1854
  WARNING 02: maximum depth increased for Node 1892
  WARNING 02: maximum depth increased for Node 1911
  WARNING 02: maximum depth increased for Node 1914
  WARNING 02: maximum depth increased for Node 1918
  WARNING 02: maximum depth increased for Node 1919
  WARNING 02: maximum depth increased for Node 1920
  WARNING 02: maximum depth increased for Node 1921
  WARNING 02: maximum depth increased for Node 1922
  WARNING 02: maximum depth increased for Node 1923
  WARNING 02: maximum depth increased for Node 1932
  WARNING 02: maximum depth increased for Node 1984
  WARNING 02: maximum depth increased for Node 1985
  WARNING 02: maximum depth increased for Node 1986
  WARNING 02: maximum depth increased for Node 1987
  WARNING 02: maximum depth increased for Node 1988
  WARNING 02: maximum depth increased for Node 1989
  WARNING 02: maximum depth increased for Node 1990
  WARNING 02: maximum depth increased for Node 1991
  WARNING 02: maximum depth increased for Node 1992
  WARNING 02: maximum depth increased for Node 2005
  WARNING 02: maximum depth increased for Node 2034
  WARNING 02: maximum depth increased for Node 2042
  WARNING 02: maximum depth increased for Node 2064
  WARNING 02: maximum depth increased for Node 2110
  WARNING 02: maximum depth increased for Node 2124
  WARNING 02: maximum depth increased for Node 2133
  WARNING 02: maximum depth increased for Node 2134
  WARNING 02: maximum depth increased for Node 2136
  WARNING 02: maximum depth increased for Node 2138
  WARNING 02: maximum depth increased for Node 2139
  WARNING 02: maximum depth increased for Node 2140
  WARNING 02: maximum depth increased for Node 2142
  WARNING 02: maximum depth increased for Node 2145
  WARNING 02: maximum depth increased for Node 2169
  WARNING 02: maximum depth increased for Node 2171
  WARNING 02: maximum depth increased for Node 2172
  WARNING 02: maximum depth increased for Node 2176
  WARNING 02: maximum depth increased for Node 2177
  WARNING 02: maximum depth increased for Node 2179
  WARNING 02: maximum depth increased for Node 2180
  WARNING 02: maximum depth increased for Node 2181
  WARNING 02: maximum depth increased for Node 2182
  WARNING 02: maximum depth increased for Node 2183
  WARNING 02: maximum depth increased for Node 2184
  WARNING 02: maximum depth increased for Node 2209
  WARNING 02: maximum depth increased for Node 2210
  WARNING 02: maximum depth increased for Node 2218
  WARNING 02: maximum depth increased for Node 2222
  WARNING 02: maximum depth increased for Node 2231
  WARNING 02: maximum depth increased for Node 2239
  WARNING 02: maximum depth increased for Node 2241
  WARNING 02: maximum depth increased for Node 2243
  WARNING 02: maximum depth increased for Node 2245
  WARNING 02: maximum depth increased for Node 2249
  WARNING 02: maximum depth increased for Node 2251
  WARNING 02: maximum depth increased for Node 2254
  WARNING 02: maximum depth increased for Node 2256
  WARNING 02: maximum depth increased for Node 2259
  WARNING 02: maximum depth increased for Node 2260
  WARNING 02: maximum depth increased for Node 2261
  WARNING 02: maximum depth increased for Node 2264
  WARNING 02: maximum depth increased for Node 2265
  WARNING 02: maximum depth increased for Node 2272
  WARNING 02: maximum depth increased for Node 2273
  WARNING 02: maximum depth increased for Node 2274
  WARNING 02: maximum depth increased for Node 2276
  WARNING 02: maximum depth increased for Node 2277
  WARNING 02: maximum depth increased for Node 2278
  WARNING 02: maximum depth increased for Node 2281
  WARNING 02: maximum depth increased for Node 2289
  WARNING 02: maximum depth increased for Node 2290
  WARNING 02: maximum depth increased for Node 2291
  WARNING 02: maximum depth increased for Node 2292
  WARNING 02: maximum depth increased for Node 2293
  WARNING 02: maximum depth increased for Node 2294
  WARNING 02: maximum depth increased for Node 2300
  WARNING 02: maximum depth increased for Node 2301
  WARNING 02: maximum depth increased for Node 2302
  WARNING 02: maximum depth increased for Node 2303
  WARNING 02: maximum depth increased for Node 2305
  WARNING 02: maximum depth increased for Node 2306
  WARNING 02: maximum depth increased for Node 2309
  WARNING 02: maximum depth increased for Node 2310
  WARNING 02: maximum depth increased for Node 2315
  WARNING 02: maximum depth increased for Node 2316
  WARNING 02: maximum depth increased for Node 2317
  WARNING 02: maximum depth increased for Node 2319
  WARNING 02: maximum depth increased for Node 2322
  WARNING 02: maximum depth increased for Node 2323
  WARNING 02: maximum depth increased for Node 2324
  WARNING 02: maximum depth increased for Node 2326
  WARNING 02: maximum depth increased for Node 2329
  WARNING 02: maximum depth increased for Node 2330
  WARNING 02: maximum depth increased for Node 2331
  WARNING 02: maximum depth increased for Node 2332
  WARNING 02: maximum depth increased for Node 2333
  WARNING 02: maximum depth increased for Node 2334
  WARNING 02: maximum depth increased for Node 2335
  WARNING 02: maximum depth increased for Node 2336
  WARNING 02: maximum depth increased for Node 2337
  WARNING 02: maximum depth increased for Node 2338
  WARNING 02: maximum depth increased for Node 2339
  WARNING 02: maximum depth increased for Node 2340
  WARNING 02: maximum depth increased for Node 2341
  WARNING 02: maximum depth increased for Node 2342
  WARNING 02: maximum depth increased for Node 2343
  WARNING 02: maximum depth increased for Node 2344
  WARNING 02: maximum depth increased for Node 2345
  WARNING 02: maximum depth increased for Node 2346
  WARNING 02: maximum depth increased for Node 2347
  WARNING 02: maximum depth increased for Node 2348
  WARNING 02: maximum depth increased for Node 2349
  WARNING 02: maximum depth increased for Node 2351
  WARNING 02: maximum depth increased for Node 2354
  WARNING 02: maximum depth increased for Node 2355
  WARNING 02: maximum depth increased for Node 2356
  WARNING 02: maximum depth increased for Node 2357
  WARNING 02: maximum depth increased for Node 2358
  WARNING 02: maximum depth increased for Node 2359
  WARNING 02: maximum depth increased for Node 2360
  WARNING 02: maximum depth increased for Node 2367
  WARNING 02: maximum depth increased for Node 2368
  WARNING 02: maximum depth increased for Node 2369
  WARNING 02: maximum depth increased for Node 2375
  WARNING 02: maximum depth increased for Node 2376
  WARNING 02: maximum depth increased for Node 2382
  WARNING 02: maximum depth increased for Node 2383
  WARNING 02: maximum depth increased for Node 2384
  WARNING 02: maximum depth increased for Node 2387
  WARNING 02: maximum depth increased for Node 2388
  WARNING 02: maximum depth increased for Node 2393
  WARNING 02: maximum depth increased for Node 2394
  WARNING 02: maximum depth increased for Node 2396
  WARNING 02: maximum depth increased for Node 2397
  WARNING 02: maximum depth increased for Node 2410
  WARNING 02: maximum depth increased for Node 2413
  WARNING 02: maximum depth increased for Node 2414
  WARNING 02: maximum depth increased for Node 2418
  WARNING 02: maximum depth increased for Node 2421
  WARNING 02: maximum depth increased for Node 2422
  WARNING 02: maximum depth increased for Node 2423
  WARNING 02: maximum depth increased for Node 2424
  WARNING 02: maximum depth increased for Node 2425
  WARNING 02: maximum depth increased for Node 2426
  WARNING 02: maximum depth increased for Node 2427
  WARNING 02: maximum depth increased for Node 2428
  WARNING 02: maximum depth increased for Node 2429
  WARNING 02: maximum depth increased for Node 2432
  WARNING 02: maximum depth increased for Node 2433
  WARNING 02: maximum depth increased for Node 2434
  WARNING 02: maximum depth increased for Node 2435
  WARNING 02: maximum depth increased for Node 2436
  WARNING 02: maximum depth increased for Node 2437
  WARNING 02: maximum depth increased for Node 2438
  WARNING 02: maximum depth increased for Node 2439
  WARNING 02: maximum depth increased for Node 2440
  WARNING 02: maximum depth increased for Node 2441
  WARNING 02: maximum depth increased for Node 2442
  WARNING 02: maximum depth increased for Node 2443
  WARNING 02: maximum depth increased for Node 2444
  WARNING 02: maximum depth increased for Node 2445
  WARNING 02: maximum depth increased for Node 2446
  WARNING 02: maximum depth increased for Node 2447
  WARNING 02: maximum depth increased for Node 2448
  WARNING 02: maximum depth increased for Node 2451
  WARNING 02: maximum depth increased for Node 2452
  WARNING 02: maximum depth increased for Node 2453
  WARNING 02: maximum depth increased for Node 2454
  WARNING 02: maximum depth increased for Node 2455
  WARNING 02: maximum depth increased for Node 2456
  WARNING 02: maximum depth increased for Node 2457
  WARNING 02: maximum depth increased for Node 2460
  WARNING 02: maximum depth increased for Node 2461
  WARNING 02: maximum depth increased for Node 2462
  WARNING 02: maximum depth increased for Node 2463
  WARNING 02: maximum depth increased for Node 2464
  WARNING 02: maximum depth increased for Node 2465
  WARNING 02: maximum depth increased for Node 2466
  WARNING 02: maximum depth increased for Node 2467
  WARNING 02: maximum depth increased for Node 2468
  WARNING 02: maximum depth increased for Node 2469
  WARNING 02: maximum depth increased for Node 2470
  WARNING 02: maximum depth increased for Node 2471
  WARNING 02: maximum depth increased for Node 2474
  WARNING 02: maximum depth increased for Node 2475
  WARNING 02: maximum depth increased for Node 2476
  WARNING 02: maximum depth increased for Node 2477
  WARNING 02: maximum depth increased for Node 2478
  WARNING 02: maximum depth increased for Node 2479
  WARNING 02: maximum depth increased for Node 2480
  WARNING 02: maximum depth increased for Node 2481
  WARNING 02: maximum depth increased for Node 2482
  WARNING 02: maximum depth increased for Node 2483
  WARNING 02: maximum depth increased for Node 2484
  WARNING 02: maximum depth increased for Node 2485
  WARNING 02: maximum depth increased for Node 2486
  WARNING 02: maximum depth increased for Node 2487
  WARNING 02: maximum depth increased for Node 2488
  WARNING 02: maximum depth increased for Node 2489
  WARNING 02: maximum depth increased for Node 2490
  WARNING 02: maximum depth increased for Node 2491
  WARNING 02: maximum depth increased for Node 2492
  WARNING 02: maximum depth increased for Node 2493
  WARNING 02: maximum depth increased for Node 2494
  WARNING 02: maximum depth increased for Node 2497
  WARNING 02: maximum depth increased for Node 2498
  WARNING 02: maximum depth increased for Node 2499
  WARNING 02: maximum depth increased for Node 2500
  WARNING 02: maximum depth increased for Node 2501
  WARNING 02: maximum depth increased for Node 2502
  WARNING 02: maximum depth increased for Node 2503
  WARNING 02: maximum depth increased for Node 2504
  WARNING 02: maximum depth increased for Node 2505
  WARNING 02: maximum depth increased for Node 2506
  WARNING 02: maximum depth increased for Node 2507
  WARNING 02: maximum depth increased for Node 2508
  WARNING 02: maximum depth increased for Node 2509
  WARNING 02: maximum depth increased for Node 2510
  WARNING 02: maximum depth increased for Node 2511
  WARNING 02: maximum depth increased for Node 2512
  WARNING 02: maximum depth increased for Node 2513
  WARNING 02: maximum depth increased for Node 2514
  WARNING 02: maximum depth increased for Node 2515
  WARNING 02: maximum depth increased for Node 2516
  WARNING 02: maximum depth increased for Node 2517
  WARNING 02: maximum depth increased for Node 2518
  WARNING 02: maximum depth increased for Node 2519
  WARNING 02: maximum depth increased for Node 2522
  WARNING 02: maximum depth increased for Node 2523
  WARNING 02: maximum depth increased for Node 2524
  WARNING 02: maximum depth increased for Node 2525
  WARNING 02: maximum depth increased for Node 2526
  WARNING 02: maximum depth increased for Node 2535
  WARNING 02: maximum depth increased for Node 2537
  WARNING 02: maximum depth increased for Node 2538
  WARNING 02: maximum depth increased for Node 2539
  WARNING 02: maximum depth increased for Node 2540
  WARNING 02: maximum depth increased for Node 2541
  WARNING 02: maximum depth increased for Node 2543
  WARNING 02: maximum depth increased for Node 2544
  WARNING 02: maximum depth increased for Node 2545
  WARNING 02: maximum depth increased for Node 2546
  WARNING 02: maximum depth increased for Node 2547
  WARNING 02: maximum depth increased for Node 2548
  WARNING 02: maximum depth increased for Node 2549
  WARNING 02: maximum depth increased for Node 2552
  WARNING 02: maximum depth increased for Node 2554
  WARNING 02: maximum depth increased for Node 2555
  WARNING 02: maximum depth increased for Node 2566
  WARNING 02: maximum depth increased for Node 2580
  WARNING 02: maximum depth increased for Node 2587
  WARNING 02: maximum depth increased for Node 2589
  WARNING 02: maximum depth increased for Node 2638
  WARNING 02: maximum depth increased for Node 2641
  WARNING 02: maximum depth increased for Node 2642
  WARNING 02: maximum depth increased for Node 2643
  WARNING 02: maximum depth increased for Node 2657
  WARNING 02: maximum depth increased for Node 2659
  WARNING 02: maximum depth increased for Node 2660
  WARNING 02: maximum depth increased for Node 2678
  WARNING 02: maximum depth increased for Node 2679
  WARNING 02: maximum depth increased for Node 2680
  WARNING 02: maximum depth increased for Node 2681
  WARNING 02: maximum depth increased for Node 2683
  WARNING 02: maximum depth increased for Node 2686
  WARNING 02: maximum depth increased for Node 2692
  WARNING 02: maximum depth increased for Node 2693
  WARNING 02: maximum depth increased for Node 2698
  WARNING 02: maximum depth increased for Node 2700
  WARNING 02: maximum depth increased for Node 2701
  WARNING 02: maximum depth increased for Node 2703
  WARNING 02: maximum depth increased for Node 2704
  WARNING 02: maximum depth increased for Node 2705
  WARNING 02: maximum depth increased for Node 2706
  WARNING 02: maximum depth increased for Node 2707
  WARNING 02: maximum depth increased for Node 2708
  WARNING 02: maximum depth increased for Node 2709
  WARNING 02: maximum depth increased for Node 2710
  WARNING 02: maximum depth increased for Node 2711
  WARNING 02: maximum depth increased for Node 2712
  WARNING 02: maximum depth increased for Node 2720
  WARNING 02: maximum depth increased for Node 2728
  WARNING 02: maximum depth increased for Node 2735
  WARNING 02: maximum depth increased for Node 2744
  WARNING 02: maximum depth increased for Node 2745
  WARNING 02: maximum depth increased for Node 2746
  WARNING 02: maximum depth increased for Node 2747
  WARNING 02: maximum depth increased for Node 2757
  WARNING 02: maximum depth increased for Node 2758
  WARNING 02: maximum depth increased for Node 2759
  WARNING 02: maximum depth increased for Node 2760
  WARNING 02: maximum depth increased for Node 2761
  WARNING 02: maximum depth increased for Node 2762
  WARNING 02: maximum depth increased for Node 2763
  WARNING 02: maximum depth increased for Node 2764
  WARNING 02: maximum depth increased for Node 2765
  WARNING 02: maximum depth increased for Node 2766
  WARNING 02: maximum depth increased for Node 2767
  WARNING 02: maximum depth increased for Node 2768
  WARNING 02: maximum depth increased for Node 2769
  WARNING 02: maximum depth increased for Node 2770
  WARNING 02: maximum depth increased for Node 2771
  WARNING 02: maximum depth increased for Node 2783
  WARNING 02: maximum depth increased for Node 2785
  WARNING 02: maximum depth increased for Node 2787
  WARNING 02: maximum depth increased for Node 2789
  WARNING 02: maximum depth increased for Node 2795
  WARNING 02: maximum depth increased for Node 2797
  WARNING 02: maximum depth increased for Node 2798
  WARNING 02: maximum depth increased for Node 2799
  WARNING 02: maximum depth increased for Node 2800
  WARNING 02: maximum depth increased for Node 2820
  WARNING 02: maximum depth increased for Node 2832
  WARNING 02: maximum depth increased for Node 2833
  WARNING 02: maximum depth increased for Node 2834
  WARNING 02: maximum depth increased for Node 2835
  WARNING 02: maximum depth increased for Node 2836
  WARNING 02: maximum depth increased for Node 2855
  WARNING 02: maximum depth increased for Node 2856
  WARNING 02: maximum depth increased for Node 2857
  WARNING 02: maximum depth increased for Node 2858
  WARNING 02: maximum depth increased for Node 2859
  WARNING 02: maximum depth increased for Node 2860
  WARNING 02: maximum depth increased for Node 2861
  WARNING 02: maximum depth increased for Node 2862
  WARNING 02: maximum depth increased for Node 2863
  WARNING 02: maximum depth increased for Node 2864
  WARNING 02: maximum depth increased for Node 2865
  WARNING 02: maximum depth increased for Node 2866
  WARNING 02: maximum depth increased for Node 2867
  WARNING 02: maximum depth increased for Node 2868
  WARNING 02: maximum depth increased for Node 2872
  WARNING 02: maximum depth increased for Node 2873
  WARNING 02: maximum depth increased for Node 2874
  WARNING 02: maximum depth increased for Node 2879
  WARNING 02: maximum depth increased for Node 2888
  WARNING 02: maximum depth increased for Node 2889
  WARNING 02: maximum depth increased for Node 2890
  WARNING 02: maximum depth increased for Node 2891
  WARNING 02: maximum depth increased for Node 2892
  WARNING 02: maximum depth increased for Node 2893
  WARNING 02: maximum depth increased for Node 2894
  WARNING 02: maximum depth increased for Node 2895
  WARNING 02: maximum depth increased for Node 2896
  WARNING 02: maximum depth increased for Node 2897
  WARNING 02: maximum depth increased for Node 2898
  WARNING 02: maximum depth increased for Node 2899
  WARNING 02: maximum depth increased for Node 2900
  WARNING 02: maximum depth increased for Node 2901
  WARNING 02: maximum depth increased for Node 2902
  WARNING 02: maximum depth increased for Node 2903
  WARNING 02: maximum depth increased for Node 2913
  WARNING 02: maximum depth increased for Node 2923
  WARNING 02: maximum depth increased for Node 2924
  WARNING 02: maximum depth increased for Node 2925
  WARNING 02: maximum depth increased for Node 2926
  WARNING 02: maximum depth increased for Node 2927
  WARNING 02: maximum depth increased for Node 2952
  WARNING 02: maximum depth increased for Node 2953
  WARNING 02: maximum depth increased for Node 2954
  WARNING 02: maximum depth increased for Node 2955
  WARNING 02: maximum depth increased for Node 2956
  WARNING 02: maximum depth increased for Node 2993
  WARNING 02: maximum depth increased for Node 3011
  WARNING 02: maximum depth increased for Node 3031
  WARNING 02: maximum depth increased for Node 3032
  WARNING 02: maximum depth increased for Node 3033
  WARNING 02: maximum depth increased for Node 3036
  WARNING 02: maximum depth increased for Node 3041
  WARNING 02: maximum depth increased for Node 3042
  WARNING 02: maximum depth increased for Node 3045
  WARNING 02: maximum depth increased for Node 3046
  WARNING 02: maximum depth increased for Node 3047
  WARNING 02: maximum depth increased for Node 3049
  WARNING 02: maximum depth increased for Node 3050
  WARNING 02: maximum depth increased for Node 3061
  WARNING 02: maximum depth increased for Node 3062
  WARNING 02: maximum depth increased for Node 3063
  WARNING 02: maximum depth increased for Node 3064
  WARNING 02: maximum depth increased for Node 3065
  WARNING 02: maximum depth increased for Node 3066
  WARNING 02: maximum depth increased for Node 3070
  WARNING 02: maximum depth increased for Node 3084
  WARNING 02: maximum depth increased for Node 3085
  WARNING 02: maximum depth increased for Node 3092
  WARNING 02: maximum depth increased for Node 3112
  WARNING 02: maximum depth increased for Node 3113
  WARNING 02: maximum depth increased for Node 3114
  WARNING 02: maximum depth increased for Node 3122
  WARNING 02: maximum depth increased for Node 3123
  WARNING 02: maximum depth increased for Node 3124
  WARNING 02: maximum depth increased for Node 3125
  WARNING 02: maximum depth increased for Node 3126
  WARNING 02: maximum depth increased for Node 3139
  WARNING 02: maximum depth increased for Node 3140
  WARNING 02: maximum depth increased for Node 3144
  WARNING 02: maximum depth increased for Node 3145
  WARNING 02: maximum depth increased for Node 3146
  WARNING 02: maximum depth increased for Node 3147
  WARNING 02: maximum depth increased for Node 3148
  WARNING 02: maximum depth increased for Node 3149
  WARNING 02: maximum depth increased for Node 3150
  WARNING 02: maximum depth increased for Node 3151
  WARNING 02: maximum depth increased for Node 3152
  WARNING 02: maximum depth increased for Node 3158
  WARNING 02: maximum depth increased for Node 3159
  WARNING 02: maximum depth increased for Node 3164
  WARNING 02: maximum depth increased for Node 3165
  WARNING 02: maximum depth increased for Node 3172
  WARNING 02: maximum depth increased for Node 3173
  WARNING 02: maximum depth increased for Node 3174
  WARNING 02: maximum depth increased for Node 3175
  WARNING 02: maximum depth increased for Node 3176
  WARNING 02: maximum depth increased for Node 3177
  WARNING 02: maximum depth increased for Node 3178
  WARNING 02: maximum depth increased for Node 3179
  WARNING 02: maximum depth increased for Node 3180
  WARNING 02: maximum depth increased for Node 3181
  WARNING 02: maximum depth increased for Node 3182
  WARNING 02: maximum depth increased for Node 3183
  WARNING 02: maximum depth increased for Node 3184
  WARNING 02: maximum depth increased for Node 3201
  WARNING 02: maximum depth increased for Node 3202
  WARNING 02: maximum depth increased for Node 3203
  WARNING 02: maximum depth increased for Node 3204
  WARNING 02: maximum depth increased for Node 3205
  WARNING 02: maximum depth increased for Node 3225
  WARNING 02: maximum depth increased for Node 3226
  WARNING 02: maximum depth increased for Node 3227
  WARNING 02: maximum depth increased for Node 3228
  WARNING 02: maximum depth increased for Node 3229
  WARNING 02: maximum depth increased for Node 3230
  WARNING 02: maximum depth increased for Node 3231
  WARNING 02: maximum depth increased for Node 3232
  WARNING 02: maximum depth increased for Node 3233
  WARNING 02: maximum depth increased for Node 3236
  WARNING 02: maximum depth increased for Node 3259
  WARNING 02: maximum depth increased for Node 3260
  WARNING 02: maximum depth increased for Node 3261
  WARNING 02: maximum depth increased for Node 3262
  WARNING 02: maximum depth increased for Node 3263
  WARNING 02: maximum depth increased for Node 3264
  WARNING 02: maximum depth increased for Node 3268
  WARNING 02: maximum depth increased for Node 3294
  WARNING 02: maximum depth increased for Node 3295
  WARNING 02: maximum depth increased for Node 3296
  WARNING 02: maximum depth increased for Node 3297
  WARNING 02: maximum depth increased for Node 3298
  WARNING 02: maximum depth increased for Node 3299
  WARNING 02: maximum depth increased for Node 3300
  WARNING 02: maximum depth increased for Node 3301
  WARNING 02: maximum depth increased for Node 3303
  WARNING 02: maximum depth increased for Node 3304
  WARNING 02: maximum depth increased for Node 3305
  WARNING 02: maximum depth increased for Node 3310
  WARNING 02: maximum depth increased for Node 3311
  WARNING 02: maximum depth increased for Node 3312
  WARNING 02: maximum depth increased for Node 3318
  WARNING 02: maximum depth increased for Node 3356
  WARNING 02: maximum depth increased for Node 3367
  WARNING 02: maximum depth increased for Node 3368
  WARNING 02: maximum depth increased for Node 3370
  WARNING 02: maximum depth increased for Node 3374
  WARNING 02: maximum depth increased for Node 3375
  WARNING 02: maximum depth increased for Node 3382
  WARNING 02: maximum depth increased for Node 3383
  WARNING 02: maximum depth increased for Node 3384
  WARNING 02: maximum depth increased for Node 3385
  WARNING 02: maximum depth increased for Node 3386
  WARNING 02: maximum depth increased for Node 3387
  WARNING 02: maximum depth increased for Node 3388
  WARNING 02: maximum depth increased for Node 3389
  WARNING 02: maximum depth increased for Node 3390
  WARNING 02: maximum depth increased for Node 3391
  WARNING 02: maximum depth increased for Node 3392
  WARNING 02: maximum depth increased for Node 3393
  WARNING 02: maximum depth increased for Node 3394
  WARNING 02: maximum depth increased for Node 3395
  WARNING 02: maximum depth increased for Node 3396
  WARNING 02: maximum depth increased for Node 3397
  WARNING 02: maximum depth increased for Node 3403
  WARNING 02: maximum depth increased for Node 3404
  WARNING 02: maximum depth increased for Node 3405
  WARNING 02: maximum depth increased for Node 3406
  WARNING 02: maximum depth increased for Node 3407
  WARNING 02: maximum depth increased for Node 3408
  WARNING 02: maximum depth increased for Node 3409
  WARNING 02: maximum depth increased for Node 3410
  WARNING 02: maximum depth increased for Node 3411
  WARNING 02: maximum depth increased for Node 3412
  WARNING 02: maximum depth increased for Node 3413
  WARNING 02: maximum depth increased for Node 3414
  WARNING 02: maximum depth increased for Node 3415
  WARNING 02: maximum depth increased for Node 3416
  WARNING 02: maximum depth increased for Node 3417
  WARNING 02: maximum depth increased for Node 3418
  WARNING 02: maximum depth increased for Node 3419
  WARNING 02: maximum depth increased for Node 3422
  WARNING 02: maximum depth increased for Node 3423
  WARNING 02: maximum depth increased for Node 3424
  WARNING 02: maximum depth increased for Node 3425
  WARNING 02: maximum depth increased for Node 3426
  WARNING 02: maximum depth increased for Node 3427
  WARNING 02: maximum depth increased for Node 3428
  WARNING 02: maximum depth increased for Node 3429
  WARNING 02: maximum depth increased for Node 3430
  WARNING 02: maximum depth increased for Node 3431
  WARNING 02: maximum depth increased for Node 3439
  WARNING 02: maximum depth increased for Node 3440
  WARNING 02: maximum depth increased for Node 3449
  WARNING 02: maximum depth increased for Node 3450
  WARNING 02: maximum depth increased for Node 3451
  WARNING 02: maximum depth increased for Node 3452
  WARNING 02: maximum depth increased for Node 3454
  WARNING 02: maximum depth increased for Node 3477
  WARNING 02: maximum depth increased for Node 3478
  WARNING 02: maximum depth increased for Node 3479
  WARNING 02: maximum depth increased for Node 3484
  WARNING 02: maximum depth increased for Node 3485
  WARNING 02: maximum depth increased for Node 3486
  WARNING 02: maximum depth increased for Node 3492
  WARNING 02: maximum depth increased for Node 3506
  WARNING 02: maximum depth increased for Node 3507
  WARNING 02: maximum depth increased for Node 3508
  WARNING 02: maximum depth increased for Node 3509
  WARNING 02: maximum depth increased for Node 3510
  WARNING 02: maximum depth increased for Node 3511
  WARNING 02: maximum depth increased for Node 3512
  WARNING 02: maximum depth increased for Node 3516
  WARNING 02: maximum depth increased for Node 3517
  WARNING 02: maximum depth increased for Node 3518
  WARNING 02: maximum depth increased for Node 3519
  WARNING 02: maximum depth increased for Node 3521
  WARNING 02: maximum depth increased for Node 3522
  WARNING 02: maximum depth increased for Node 3529
  WARNING 02: maximum depth increased for Node 3530
  WARNING 02: maximum depth increased for Node 3531
  WARNING 02: maximum depth increased for Node 3532
  WARNING 02: maximum depth increased for Node 3533
  WARNING 02: maximum depth increased for Node 3538
  WARNING 02: maximum depth increased for Node 3539
  WARNING 02: maximum depth increased for Node 3569
  WARNING 02: maximum depth increased for Node 3584
  WARNING 02: maximum depth increased for Node 3587
  WARNING 02: maximum depth increased for Node 3590
  WARNING 02: maximum depth increased for Node 3615
  WARNING 02: maximum depth increased for Node 3616
  WARNING 02: maximum depth increased for Node 3624
  WARNING 02: maximum depth increased for Node 3646
  WARNING 02: maximum depth increased for Node 3647
  WARNING 02: maximum depth increased for Node 3666
  WARNING 02: maximum depth increased for Node 3674
  WARNING 02: maximum depth increased for Node 3682
  WARNING 02: maximum depth increased for Node 3698
  WARNING 02: maximum depth increased for Node 3699
  WARNING 02: maximum depth increased for Node 3700
  WARNING 02: maximum depth increased for Node 3701
  WARNING 02: maximum depth increased for Node 3702
  WARNING 02: maximum depth increased for Node 3703
  WARNING 02: maximum depth increased for Node 3704
  WARNING 02: maximum depth increased for Node 3705
  WARNING 02: maximum depth increased for Node 3706
  WARNING 02: maximum depth increased for Node 3707
  WARNING 02: maximum depth increased for Node 3708
  WARNING 02: maximum depth increased for Node 3709
  WARNING 02: maximum depth increased for Node 3710
  WARNING 02: maximum depth increased for Node 3711
  WARNING 02: maximum depth increased for Node 3712
  WARNING 02: maximum depth increased for Node 3716
  WARNING 02: maximum depth increased for Node 3717
  WARNING 02: maximum depth increased for Node 3718
  WARNING 02: maximum depth increased for Node 3721
  WARNING 02: maximum depth increased for Node 3723
  WARNING 02: maximum depth increased for Node 3724
  WARNING 02: maximum depth increased for Node 3725
  WARNING 02: maximum depth increased for Node 3726
  WARNING 02: maximum depth increased for Node 3727
  WARNING 02: maximum depth increased for Node 3728
  WARNING 02: maximum depth increased for Node 3729
  WARNING 02: maximum depth increased for Node 3730
  WARNING 02: maximum depth increased for Node 3731
  WARNING 02: maximum depth increased for Node 3733
  WARNING 02: maximum depth increased for Node 3734
  WARNING 02: maximum depth increased for Node 3735
  WARNING 02: maximum depth increased for Node 3755
  WARNING 02: maximum depth increased for Node 3756
  WARNING 02: maximum depth increased for Node 3757
  WARNING 02: maximum depth increased for Node 3758
  WARNING 02: maximum depth increased for Node 3759
  WARNING 02: maximum depth increased for Node 3760
  WARNING 02: maximum depth increased for Node 3761
  WARNING 02: maximum depth increased for Node 3762
  WARNING 02: maximum depth increased for Node 3775
  WARNING 02: maximum depth increased for Node 3776
  WARNING 02: maximum depth increased for Node 3777
  WARNING 02: maximum depth increased for Node 3778
  WARNING 02: maximum depth increased for Node 3779
  WARNING 02: maximum depth increased for Node 3780
  WARNING 02: maximum depth increased for Node 3781
  WARNING 02: maximum depth increased for Node 3782
  WARNING 02: maximum depth increased for Node 3783
  WARNING 02: maximum depth increased for Node 3784
  WARNING 02: maximum depth increased for Node 3785
  WARNING 02: maximum depth increased for Node 3786
  WARNING 02: maximum depth increased for Node 3787
  WARNING 02: maximum depth increased for Node 3793
  WARNING 02: maximum depth increased for Node 3794
  WARNING 02: maximum depth increased for Node 3795
  WARNING 02: maximum depth increased for Node 3803
  WARNING 02: maximum depth increased for Node 3804
  WARNING 02: maximum depth increased for Node 3811
  WARNING 02: maximum depth increased for Node 3812
  WARNING 02: maximum depth increased for Node 3819
  WARNING 02: maximum depth increased for Node 3820
  WARNING 02: maximum depth increased for Node 3821
  WARNING 02: maximum depth increased for Node 3822
  WARNING 02: maximum depth increased for Node 3823
  WARNING 02: maximum depth increased for Node 3824
  WARNING 02: maximum depth increased for Node 3825
  WARNING 02: maximum depth increased for Node 3826
  WARNING 02: maximum depth increased for Node 3827
  WARNING 02: maximum depth increased for Node 3828
  WARNING 02: maximum depth increased for Node 3836
  WARNING 02: maximum depth increased for Node 3837
  WARNING 02: maximum depth increased for Node 3838
  WARNING 02: maximum depth increased for Node 3839
  WARNING 02: maximum depth increased for Node 3840
  WARNING 02: maximum depth increased for Node 3841
  WARNING 02: maximum depth increased for Node 3842
  WARNING 02: maximum depth increased for Node 3843
  WARNING 02: maximum depth increased for Node 3844
  WARNING 02: maximum depth increased for Node 3845
  WARNING 02: maximum depth increased for Node 3846
  WARNING 02: maximum depth increased for Node 3847
  WARNING 02: maximum depth increased for Node 3848
  WARNING 02: maximum depth increased for Node 3849
  WARNING 02: maximum depth increased for Node 3850
  WARNING 02: maximum depth increased for Node 3851
  WARNING 02: maximum depth increased for Node 3852
  WARNING 02: maximum depth increased for Node 3853
  WARNING 02: maximum depth increased for Node 3882
  WARNING 02: maximum depth increased for Node 3883
  WARNING 02: maximum depth increased for Node 3884
  WARNING 02: maximum depth increased for Node 3885
  WARNING 02: maximum depth increased for Node 3886
  WARNING 02: maximum depth increased for Node 3890
  WARNING 02: maximum depth increased for Node 3891
  WARNING 02: maximum depth increased for Node 3892
  WARNING 02: maximum depth increased for Node 3893
  WARNING 02: maximum depth increased for Node 3894
  WARNING 02: maximum depth increased for Node 3895
  WARNING 02: maximum depth increased for Node 3896
  WARNING 02: maximum depth increased for Node 3897
  WARNING 02: maximum depth increased for Node 3898
  WARNING 02: maximum depth increased for Node 3899
  WARNING 02: maximum depth increased for Node 3900
  WARNING 02: maximum depth increased for Node 3901
  WARNING 02: maximum depth increased for Node 3902
  WARNING 02: maximum depth increased for Node 3903
  WARNING 02: maximum depth increased for Node 3904
  WARNING 02: maximum depth increased for Node 3905
  WARNING 02: maximum depth increased for Node 3906
  WARNING 02: maximum depth increased for Node 3910
  WARNING 02: maximum depth increased for Node 3911
  WARNING 02: maximum depth increased for Node 3912
  WARNING 02: maximum depth increased for Node 3913
  WARNING 02: maximum depth increased for Node 3914
  WARNING 02: maximum depth increased for Node 3920
  WARNING 02: maximum depth increased for Node 3921
  WARNING 02: maximum depth increased for Node 3922
  WARNING 02: maximum depth increased for Node 3923
  WARNING 02: maximum depth increased for Node 3924
  WARNING 02: maximum depth increased for Node 3925
  WARNING 02: maximum depth increased for Node 3932
  WARNING 02: maximum depth increased for Node 3933
  WARNING 02: maximum depth increased for Node 3934
  WARNING 02: maximum depth increased for Node 3935
  WARNING 02: maximum depth increased for Node 3936
  WARNING 02: maximum depth increased for Node 3937
  WARNING 02: maximum depth increased for Node 3938
  WARNING 02: maximum depth increased for Node 3939
  WARNING 02: maximum depth increased for Node 3940
  WARNING 02: maximum depth increased for Node 3941
  WARNING 02: maximum depth increased for Node 3942
  WARNING 02: maximum depth increased for Node 3954
  WARNING 02: maximum depth increased for Node 3955
  WARNING 02: maximum depth increased for Node 3956
  WARNING 02: maximum depth increased for Node 3993
  WARNING 02: maximum depth increased for Node 3998
  WARNING 02: maximum depth increased for Node 4021
  WARNING 02: maximum depth increased for Node 4022
  WARNING 02: maximum depth increased for Node 4023
  WARNING 02: maximum depth increased for Node 4024
  WARNING 02: maximum depth increased for Node 4025
  WARNING 02: maximum depth increased for Node 4029
  WARNING 02: maximum depth increased for Node 4039
  WARNING 02: maximum depth increased for Node 4040
  WARNING 02: maximum depth increased for Node 4041
  WARNING 02: maximum depth increased for Node 4042
  WARNING 02: maximum depth increased for Node 4079
  WARNING 02: maximum depth increased for Node 4081
  WARNING 02: maximum depth increased for Node 4084
  WARNING 02: maximum depth increased for Node 4085
  WARNING 02: maximum depth increased for Node 4086
  WARNING 02: maximum depth increased for Node 4087
  WARNING 02: maximum depth increased for Node 4088
  WARNING 02: maximum depth increased for Node 4089
  WARNING 02: maximum depth increased for Node 4090
  WARNING 02: maximum depth increased for Node 4091
  WARNING 02: maximum depth increased for Node 4092
  WARNING 02: maximum depth increased for Node 4093
  WARNING 02: maximum depth increased for Node 4094
  WARNING 02: maximum depth increased for Node 4095
  WARNING 02: maximum depth increased for Node 4096
  WARNING 02: maximum depth increased for Node 4097
  WARNING 02: maximum depth increased for Node 4098
  WARNING 02: maximum depth increased for Node 4099
  WARNING 02: maximum depth increased for Node 4100
  WARNING 02: maximum depth increased for Node 4116
  WARNING 02: maximum depth increased for Node 4117
  WARNING 02: maximum depth increased for Node 4118
  WARNING 02: maximum depth increased for Node 4119
  WARNING 02: maximum depth increased for Node 4120
  WARNING 02: maximum depth increased for Node 4121
  WARNING 02: maximum depth increased for Node 4122
  WARNING 02: maximum depth increased for Node 4126
  WARNING 02: maximum depth increased for Node 4127
  WARNING 02: maximum depth increased for Node 4128
  WARNING 02: maximum depth increased for Node 4130
  WARNING 02: maximum depth increased for Node 4131
  WARNING 02: maximum depth increased for Node 4132
  WARNING 02: maximum depth increased for Node 4133
  WARNING 02: maximum depth increased for Node 4134
  WARNING 02: maximum depth increased for Node 4135
  WARNING 02: maximum depth increased for Node 4136
  WARNING 02: maximum depth increased for Node 4143
  WARNING 02: maximum depth increased for Node 4147
  WARNING 02: maximum depth increased for Node 4148
  WARNING 02: maximum depth increased for Node 4149
  WARNING 02: maximum depth increased for Node 4150
  WARNING 02: maximum depth increased for Node 4158
  WARNING 02: maximum depth increased for Node 4159
  WARNING 02: maximum depth increased for Node 4160
  WARNING 02: maximum depth increased for Node 4164
  WARNING 02: maximum depth increased for Node 4165
  WARNING 02: maximum depth increased for Node 4166
  WARNING 02: maximum depth increased for Node 4167
  WARNING 02: maximum depth increased for Node 4168
  WARNING 02: maximum depth increased for Node 4170
  WARNING 02: maximum depth increased for Node 4171
  WARNING 02: maximum depth increased for Node 4172
  WARNING 02: maximum depth increased for Node 4173
  WARNING 02: maximum depth increased for Node 4174
  WARNING 02: maximum depth increased for Node 4175
  WARNING 02: maximum depth increased for Node 4176
  WARNING 02: maximum depth increased for Node 4177
  WARNING 02: maximum depth increased for Node 4178
  WARNING 02: maximum depth increased for Node 4179
  WARNING 02: maximum depth increased for Node 4180
  WARNING 02: maximum depth increased for Node 4181
  WARNING 02: maximum depth increased for Node 4182
  WARNING 02: maximum depth increased for Node 4183
  WARNING 02: maximum depth increased for Node 4184
  WARNING 02: maximum depth increased for Node 4185
  WARNING 02: maximum depth increased for Node 4186
  WARNING 02: maximum depth increased for Node 4187
  WARNING 02: maximum depth increased for Node 4188
  WARNING 02: maximum depth increased for Node 4189
  WARNING 02: maximum depth increased for Node 4190
  WARNING 02: maximum depth increased for Node 4191
  WARNING 02: maximum depth increased for Node 4192
  WARNING 02: maximum depth increased for Node 4195
  WARNING 02: maximum depth increased for Node 4206
  WARNING 02: maximum depth increased for Node 4207
  WARNING 02: maximum depth increased for Node 4215
  WARNING 02: maximum depth increased for Node 4216
  WARNING 02: maximum depth increased for Node 4219
  WARNING 02: maximum depth increased for Node 4228
  WARNING 02: maximum depth increased for Node 4229
  WARNING 02: maximum depth increased for Node 4230
  WARNING 02: maximum depth increased for Node 4231
  WARNING 02: maximum depth increased for Node 4232
  WARNING 02: maximum depth increased for Node 4233
  WARNING 02: maximum depth increased for Node 4234
  WARNING 02: maximum depth increased for Node 4237
  WARNING 02: maximum depth increased for Node 4238
  WARNING 02: maximum depth increased for Node 4239
  WARNING 02: maximum depth increased for Node 4240
  WARNING 02: maximum depth increased for Node 4241
  WARNING 02: maximum depth increased for Node 4242
  WARNING 02: maximum depth increased for Node 4243
  WARNING 02: maximum depth increased for Node 4244
  WARNING 02: maximum depth increased for Node 4245
  WARNING 02: maximum depth increased for Node 4246
  WARNING 02: maximum depth increased for Node 4247
  WARNING 02: maximum depth increased for Node 4248
  WARNING 02: maximum depth increased for Node 4249
  WARNING 02: maximum depth increased for Node 4250
  WARNING 02: maximum depth increased for Node 4251
  WARNING 02: maximum depth increased for Node 4252
  WARNING 02: maximum depth increased for Node 4253
  WARNING 02: maximum depth increased for Node 4254
  WARNING 02: maximum depth increased for Node 4255
  WARNING 02: maximum depth increased for Node 4256
  WARNING 02: maximum depth increased for Node 4257
  WARNING 02: maximum depth increased for Node 4258
  WARNING 02: maximum depth increased for Node 4259
  WARNING 02: maximum depth increased for Node 4260
  WARNING 02: maximum depth increased for Node 4261
  WARNING 02: maximum depth increased for Node 4262
  WARNING 02: maximum depth increased for Node 4263
  WARNING 02: maximum depth increased for Node 4264
  WARNING 02: maximum depth increased for Node 4265
  WARNING 02: maximum depth increased for Node 4266
  WARNING 02: maximum depth increased for Node 4267
  WARNING 02: maximum depth increased for Node 4268
  WARNING 02: maximum depth increased for Node 4269
  WARNING 02: maximum depth increased for Node 4270
  WARNING 02: maximum depth increased for Node 4271
  WARNING 02: maximum depth increased for Node 4272
[...]
  4315                        0.01     12.40      0.01      0.01         0.01
  4320                        0.01      0.01      0.01      7.41         0.01
  4327                        0.01      0.01      0.01     24.69         0.01
  4344                        0.01      0.01      0.01     12.70         0.01
  4345                        0.01      0.01      0.01    229.75         0.01
  4438                        0.01      0.01      0.01      2.36         0.01
  4439                        0.01      0.01      0.01      5.12         0.01
  4440                        0.01      0.01      0.01      7.40         0.01
  4445                        0.01      0.01      0.01     18.64         0.01
  4446                        0.01      0.01      0.01     18.64         0.01
  4476                       22.37     22.37     28.55      7.73         0.01
  4477                        0.01      0.01     22.37      0.01         0.01
  4480                        0.01      0.01      0.01      0.01         0.01
  4483                        0.01      0.01      5.89      0.01         0.01
  4484                        5.89      5.89     24.27      0.01         0.01
  4485                       24.27     24.27     24.85     22.47         0.01
  4497                        0.01      0.01      0.01    192.17         0.01
  4501                       27.61     28.55     27.62    231.75        23.93
  4502                        0.01      0.01      0.01      0.01         0.01
  4503                        0.01      0.01     52.30     39.01         0.01
  4504                        0.01      0.01      0.01     16.31         0.01
  4505                        0.01      0.01      0.01     11.81         0.01
  4512                        0.01      0.01     24.15      0.01         0.01
  4524                        0.01     27.27      0.01     27.41         0.01
  4525                        0.01      0.01     27.27      0.48         0.01
  4526                        0.01      0.01      0.01      1.17         0.01
  4527                        0.01      0.01      0.01      1.50         0.01
  4528                        0.01     24.16      0.01      0.47         0.01
  4529                       21.76     21.76     24.16      0.67         0.01
  4530                        0.01      0.01     21.76      0.01         0.01
  4531                       34.18     34.18     40.17     24.38         0.01
  4532                        0.01      0.01     34.18      0.01         0.01
  4537                        0.01      0.01     13.16      0.01         0.01
  4545                       34.00     41.69     36.47      9.61         0.01
  4546                        0.01      0.01     37.90      4.00         0.01
  4547                        0.01      0.01     37.90      0.01         0.01
  4549                        0.01      0.01      0.01     33.48         0.01
  4551                        0.01      0.01      0.01     23.86         0.01
  4552                        0.01      0.01      0.01     10.90         0.01
  4554                        0.01     18.25      0.01     19.51         0.01
  4556                        0.01      0.01     14.80      6.21         0.01
  4558                        0.01      0.01     28.95     27.64         0.01
  4559                        0.01      0.01      0.01     20.11         0.01
  4561                        0.01      0.01     29.61      0.01         0.01
  4562                        0.01      0.01      0.01     23.80         0.01
  4564                        0.01      0.01      4.19     18.11         0.01
  4570                        0.01      0.01     27.64      0.01         0.01
  4572                        0.01      0.01    186.40      0.01         0.01
  4575                        0.01      0.01     15.98      0.01         0.01
  4576                        0.01      0.01     18.75      0.01         0.01
  4578                        0.01      0.01      0.01     21.19         0.01
  4579                        0.01      0.01      0.01     16.57         0.01
  4580                       22.84     23.71     28.00     17.39         0.01
  4588                        0.01      0.01     20.78      0.01         0.01
  4592                        0.01      0.01      0.01     21.21         0.01
  4595                      212.38    212.38    217.31     33.51         0.01
  4596                        1.86      1.86    212.38      4.71         0.01
  4597                       29.31     29.31    217.31      0.01         0.01
  4598                        0.01      0.01     42.00      0.01         0.01
  4599                        0.01      0.01     64.17      3.92         0.01
  4605                       29.14     29.14     32.70     23.32         0.01
  4606                        0.01      0.01     29.14      0.01         0.01
  4614                        0.01      0.01      1.20      2.80         0.01
  4622                        0.01      0.01     64.10      0.01         0.01
  4639                        0.01      0.01      0.01      0.41         0.01
  4643                        0.01     26.22      0.01     27.53         0.01
  4644                       15.63     15.63     25.66      0.01         0.01
  4645                        0.01      0.01     15.63      8.10         0.01
  4646                        0.01      0.01      0.01      5.07         0.01
  4647                       16.82     16.82     22.04      0.10         0.01
  4648                        0.01      0.01      2.74      0.01         0.01
  4660                        0.01      0.01      0.01     49.90         0.01
  4661                        0.01      0.01      0.01      2.29         0.01
  4662                        0.01     33.40      0.01      2.57         0.01
  4663                       31.59     34.85     33.40      2.83         0.01
  4664                       34.49     43.63     34.85      3.05         0.01
  4665                       42.55     42.55     43.63      1.14         0.01
  4666                       36.34     36.34     42.55      5.02         0.01
  4667                       35.90     40.56     36.34      5.19         0.01
  4668                       39.85     39.85     40.56      0.40         0.01
  4669                       38.85     38.90     39.85      1.14         0.01
  4670                       34.56     34.56     38.90      2.85         0.01
  4671                       31.29     31.29     34.56      5.97         0.01
  4672                       30.95     36.70     31.29      6.15         0.01
  4673                       16.25     16.25     36.70      0.66         0.01
  4674                        8.50      8.50     16.25      0.70         0.01
  4675                        0.01      0.01     41.62      0.01         0.01
  4676                        0.01      0.01     20.74      0.01         0.01
  4677                        0.01      0.01     28.00      0.01         0.01
  4682                       12.05     12.05     30.95      0.01         0.01
  4683                        0.01      0.01     12.05      0.01         0.01
  4686                        8.93      8.93     23.74      0.01         0.01
  4687                        0.01      0.01      8.93      0.01         0.01
  4688                        7.01      7.01     13.76      0.01         0.01
  4689                        0.01      0.01      7.01      0.01         0.01
  4691                        0.66      0.66     34.32      0.01         0.01
  4692                        0.01      0.01     21.97      0.01         0.01
  4694                        2.74      2.74      4.12      0.70         0.01
  4705                        0.01      0.01      5.18      0.01         0.01
  4707                        0.01      0.01      5.18      0.01         0.01
  4709                        0.01      0.01      3.14      0.01         0.01
  4710                        3.14      3.14      5.46      1.08         0.01
  4711                        5.46      5.46      7.74      0.88         0.01
  4712                        7.74      7.74     14.27      0.68         0.01
  4713                       14.27     14.27     21.35      6.25         0.01
  4718                       22.60     22.60     40.65      0.11         0.01
  4719                        0.01      0.01     22.60      0.01         0.01
  4720                       19.79     19.79     32.51      0.01         0.01
  4721                        0.01      0.01     19.79      0.01         0.01
  4722                        0.01      0.01     97.19      1.31         0.01
  4724                        0.01      0.01     13.06      0.01         0.01
  4725                        0.01      0.01     33.25      0.01         0.01
  4726                        0.01      0.01     28.24      0.01         0.01
  4731                        0.01      0.01      0.32      0.01         0.01
  4732                        0.01      0.01      0.01      6.10         0.01
  4736                       17.81     17.81     21.61      0.01         0.01
  4737                       14.79     14.79     17.03      0.01         0.01
  4738                        0.01      0.01      0.01      0.37         0.01
  4739                       21.61     21.61     22.56      0.01         0.01
  4740                       17.03     17.03     25.13      0.01         0.01
  4741                        0.01     22.56      0.01     24.32         0.01
  4742                        0.01      0.01     14.79      0.01         0.01
  4751                        0.01     13.25      0.01     19.80         0.01
  4754                       12.89     12.89     13.25      0.01         0.01
  4759                        0.01      0.01      0.01     16.37         0.01
  4762                        0.01      0.01     13.25      0.01         0.01
  4763                        0.01      0.01      0.01      0.71         0.01
  4767                        0.01     18.08      0.01     18.07         0.01
  4769                        0.01      0.01     17.94      0.01         0.01
  4775                        0.01      0.01      0.01      8.32         0.01
  4776                        0.01      0.01      0.01      8.31         0.01
  4777                        0.01      0.01      0.01      8.31         0.01
  4779                        0.01      5.58      0.01      8.87         0.01
  4781                        0.01      0.01      0.01     15.64         0.01
  4782                        0.01      0.01      0.01      8.33         0.01
  4784                        0.01      0.01      0.01     14.89         0.01
  4788                        0.01      0.01      0.01      0.65         0.01
  4789                        0.01      0.01      0.01     24.44         0.01
  4793                        0.01      0.01      0.01     15.73         0.01
  4794                        0.01      0.01      0.01     15.72         0.01
  4798                        0.01      0.01      0.01     15.70         0.01
  4800                        0.01      0.01      0.01     15.68         0.01
  4803                        0.01      0.01      0.01     15.66         0.01
  4804                        0.01      0.01      0.01     15.64         0.01
  4805                        0.01      0.01      0.01      8.41         0.01
  4806                        0.01      0.01      0.01      8.65         0.01
  4807                        0.01      0.01      0.01      8.52         0.01
  4808                        0.01      0.01      0.01     15.99         0.01
  4809                        0.01      0.01      0.01     15.81         0.01
  4811                        0.01      0.01      0.01      9.36         0.01
  4824                        0.01      0.01     12.89      0.01         0.01
  4829                        0.01      0.01      0.01     20.90         0.01
  4839                        0.01      0.01      0.01     28.47         0.01
  4841                        0.01      0.01      0.01     28.36         0.01
  4842                        0.01     23.40      0.01     24.65         0.01
  4843                       21.72     21.72     23.40      0.65         0.01
  4844                       21.81     21.81     23.40      0.01         0.01
  4845                       21.68     21.73     21.72      0.60         0.01
  4846                       20.94     20.94     21.47      0.01         0.01
  4847                       21.47     21.47     21.81      0.01         0.01
  4848                       21.49     21.60     21.73      0.48         0.01
  4849                       20.60     20.60     20.94      0.01         0.01
  4850                       21.26     21.26     21.60      0.01         0.01
  4851                       21.08     21.08     21.26      0.01         0.01
  4852                       20.45     20.45     20.60      0.01         0.01
  4853                       20.65     20.65     21.08      0.01         0.01
  4854                        0.01      0.01     18.46      0.01         0.01
  4855                       18.46     18.46     20.45      0.01         0.01
  4861                        0.01      0.01     23.40      0.01         0.01
  4862                        0.01      0.01      0.01     28.26         0.01
  4867                        0.01      0.01     25.13      0.33         0.01
  4899                        0.01      0.01      0.01      9.13         0.01
  4900                       21.71     21.90     21.72      0.28         0.01
  4901                       14.46     21.72     14.46      8.68         0.01
  4902                       21.03     21.03     21.90      0.01         0.01
  4904                        0.01      0.01      0.01     21.85         0.01
  4906                        0.01      0.01      0.01      8.07         0.01
  4908                        0.01      0.01     28.96      0.01         0.01
  4909                        0.01      0.01      0.01     24.72         0.01
  4917                        0.01      0.01     18.43      0.01         0.01
  4918                       18.43     18.43     19.75      0.01         0.01
  4919                       19.75     19.75     20.65      0.01         0.01
  4920                        0.01     18.61      0.01     27.14         0.01
  4921                        0.01      0.01      0.01     27.17         0.01
  4922                        0.01      0.01      0.01     27.35         0.01
  4923                        0.01      0.01      0.01     27.49         0.01
  4924                       18.61     20.25     18.61      8.35         0.01
  4925                       20.25     20.89     20.25      6.47         0.01
  4926                       20.89     25.37     20.89      5.70         0.01
  4927                       25.13     25.13     25.23      0.01         0.01
  4928                       25.23     25.23     25.37      0.01         0.01
  4929                        0.01      0.01      0.01      3.33         0.01
  4931                        0.01      0.01      0.01      0.93         0.01
  4937                        0.01      0.01      0.01      0.72         0.01
  4938                       24.88     24.88     27.15      0.01         0.01
  4939                       24.58     24.58     24.88      0.01         0.01
  4940                       23.45     23.45     24.58      0.01         0.01
  4941                       21.71     21.71     23.45      0.01         0.01
  4942                       17.48     17.48     21.71      0.01         0.01
  4943                        0.01      0.01     17.48      0.01         0.01
  4944                        0.01      0.01     25.37      0.01         0.01
  4951                        0.01      0.01      0.01      0.50         0.01
  4952                        0.01      0.01      0.01      2.32         0.01
  4953                        0.01      0.01      0.01     19.81         0.01
  4954                        0.01      0.01      0.01     20.35         0.01
  4955                        0.01      0.01      0.01     20.60         0.01
  4966                       19.93     19.93     21.03      0.01         0.01
  4967                        0.01      0.01      0.01      1.27         0.01
  4969                        0.01      0.01      0.01     20.90         0.01
  4970                        0.01      0.01      0.01     27.54         0.01
  4972                        0.01      0.01     19.93      0.01         0.01
  4973                        0.01      0.01     29.68     19.05         0.01
  4974                        0.01      0.01      0.01      3.82         0.01
  4975                        0.01      0.01      0.01     24.44         0.01
  4976                        0.01      0.01      0.01     24.94         0.01
  4977                        0.01      0.01      0.01      8.35         0.01
  4982                        0.01      0.01      0.01     16.20         0.01
  4983                        0.01      0.01      0.01     15.86         0.01
  4986                        0.01      0.01      0.01     24.83         0.01
  4987                        0.01      0.01      0.01     24.82         0.01
  4988                        0.01      0.01      0.01     28.52         0.01
  4989                        0.01      0.01      0.01     28.49         0.01
  Sf_Mana                     0.01      0.01     37.41      0.01         0.01
  
  
  ***************
  Pumping Summary
  ***************
  
  ---------------------------------------------------------------------------------------------------------
                                                  Min       Avg       Max     Total     Power    % Time Off
                        Percent   Number of      Flow      Flow      Flow    Volume     Usage    Pump Curve
  Pump                 Utilized   Start-Ups       LPS       LPS       LPS  10^6 ltr     Kw-hr    Low   High
  ---------------------------------------------------------------------------------------------------------
  mondine_P1               0.00           0      0.00      0.00      0.00     0.000      0.00    0.0    0.0
  mondine_P2               0.00           0      0.00      0.00      0.00     0.000      0.00    0.0    0.0
  mondine_P3               0.00           0      0.00      0.00      0.00     0.000      0.00    0.0    0.0
  mondine_P4               0.00           0      0.00      0.00      0.00     0.000      0.00    0.0    0.0
  mondine_P5               0.00           0      0.00      0.00      0.00     0.000      0.00    0.0    0.0
  s.siro_P1                0.00           0      0.00      0.00      0.00     0.000      0.00    0.0    0.0
  s.siro_P2                0.00           0      0.00      0.00      0.00     0.000      0.00    0.0    0.0
  s.siro_P3                0.00           0      0.00      0.00      0.00     0.000      0.00    0.0    0.0
  s.siro_P4                0.00           0      0.00      0.00      0.00     0.000      0.00    0.0    0.0
  s.siro_P5                0.00           0      0.00      0.00      0.00     0.000      0.00    0.0    0.0
  s.siro_P6                0.00           0      0.00      0.00      0.00     0.000      0.00    0.0    0.0
  s.siro_P7                0.00           0      0.00      0.00      0.00     0.000      0.00    0.0    0.0
  boretto_P1               0.00           0      0.00      0.00      0.00     0.000      0.00    0.0    0.0
  boretto_P2               0.00           0      0.00      0.00      0.00     0.000      0.00    0.0    0.0
  boretto_P3               0.00           0      0.00      0.00      0.00     0.000      0.00    0.0    0.0
  boretto_P4               0.00           0      0.00      0.00      0.00     0.000      0.00    0.0    0.0
  boretto_P5               0.00           0      0.00      0.00      0.00     0.000      0.00    0.0    0.0
  

  Analysis begun on:  Tue Jun 23 21:01:10 2026
  Analysis ended on:  Tue Jun 23 21:07:14 2026
  Total elapsed time: 00:06:04