
  EPA STORM WATER MANAGEMENT MODEL - VERSION 5.2 (Build 5.2.4)
  ------------------------------------------------------------

  
  ERROR 209: undefined object 1 at line 11 of [SUBCATCHMENT] section:
  YSHV1130160 1 YSHV1130160 0.375199 81.360000 72.127292 0.807340 0.000000

  
  ERROR 209: undefined object 1 at line 12 of [SUBCATCHMENT] section:
  YSHT1140010 1 YSHT1140010 0.732145 72.614555 100.755243 0.081139 0.000000

  
  ERROR 209: undefined object 1 at line 13 of [SUBCATCHMENT] section:
  YSHV1130159 1 YSHV1130159 0.905787 67.263844 112.068121 0.161744 0.000000

  
  ERROR 209: undefined object 1 at line 14 of [SUBCATCHMENT] section:
  YSHV1130158 1 YSHV1130158 0.789666 68.130489 104.638340 0.240256 0.000000

  
  ERROR 209: undefined object 1 at line 15 of [SUBCATCHMENT] section:
  YSHT1140011 1 YSHT1140011 1.723694 67.375072 154.596317 0.280137 0.000000

  
  ERROR 209: undefined object 1 at line 16 of [SUBCATCHMENT] section:
  YSHV1130157 1 YSHV1130157 0.538651 72.550459 86.421707 0.065959 0.000000

  
  ERROR 209: undefined object 1 at line 17 of [SUBCATCHMENT] section:
  YSHV1130156 1 YSHV1130156 0.407026 76.788321 75.124211 0.220810 0.000000

  
  ERROR 209: undefined object 1 at line 18 of [SUBCATCHMENT] section:
  YSHT1410199 1 YSHT1410199 0.594470 60.000000 90.789121 0.550325 0.000000

  
  ERROR 209: undefined object 1 at line 19 of [SUBCATCHMENT] section:
  YSHT1410205 1 YSHT1410205 0.840812 60.000000 107.973834 0.619283 0.000000

  
  ERROR 209: undefined object 1 at line 20 of [SUBCATCHMENT] section:
  YSHV1410225 1 YSHV1410225 0.220371 60.000000 55.277246 0.471800 0.000000

  
  ERROR 209: undefined object 1 at line 21 of [SUBCATCHMENT] section:
  YSHT1140012 1 YSHT1140012 0.431345 84.827586 77.335907 0.207066 0.000000

  
  ERROR 209: undefined object 1 at line 22 of [SUBCATCHMENT] section:
  YSHT1410202 1 YSHT1410202 0.318265 60.000000 66.429925 3.106685 0.000000

  
  ERROR 209: undefined object 1 at line 23 of [SUBCATCHMENT] section:
  YSHV1410228 1 YSHV1410228 0.958128 60.000000 115.260574 2.872215 0.000000

  
  ERROR 209: undefined object 1 at line 24 of [SUBCATCHMENT] section:
  YSHT1430267 1 YSHT1430267 0.196775 60.000000 52.234110 0.000000 0.000000

  
  ERROR 209: undefined object 1 at line 25 of [SUBCATCHMENT] section:
  YSHT1430268 1 YSHT1430268 0.239787 60.000000 57.660922 0.000000 0.000000

  
  ERROR 209: undefined object 1 at line 26 of [SUBCATCHMENT] section:
  YSHV1130155 1 YSHV1130155 0.306984 82.476190 65.241888 0.000000 0.000000

  
  ERROR 209: undefined object 1 at line 27 of [SUBCATCHMENT] section:
  YSHT1410210 1 YSHT1410210 0.923388 60.000000 113.151738 0.000000 0.000000

  
  ERROR 209: undefined object 1 at line 28 of [SUBCATCHMENT] section:
  YSHT1430269 1 YSHT1430269 0.162072 60.000000 47.404856 0.000000 0.000000

  
  ERROR 209: undefined object 1 at line 29 of [SUBCATCHMENT] section:
  YSHT1430270 1 YSHT1430270 0.187451 60.000000 50.981531 0.442063 0.000000

  
  ERROR 209: undefined object 1 at line 30 of [SUBCATCHMENT] section:
  YSHT1430273 1 YSHT1430273 0.204476 60.000000 53.246334 0.653869 0.000000

  
  ERROR 209: undefined object 1 at line 31 of [SUBCATCHMENT] section:
  YSHV1130154 1 YSHV1130154 0.333836 85.309735 68.035504 0.548106 0.000000

  
  ERROR 209: undefined object 1 at line 32 of [SUBCATCHMENT] section:
  YSHT1410204 1 YSHT1410204 0.194765 60.000000 51.966655 0.000000 0.000000

  
  ERROR 209: undefined object 1 at line 33 of [SUBCATCHMENT] section:
  YSHT1430266 1 YSHT1430266 0.030024 60.000000 20.403535 0.000000 0.000000

  
  ERROR 209: undefined object 1 at line 34 of [SUBCATCHMENT] section:
  YSHT1430265 1 YSHT1430265 0.120706 60.000000 40.910439 0.000000 0.000000

  
  ERROR 209: undefined object 1 at line 35 of [SUBCATCHMENT] section:
  YSHV1410229 1 YSHV1410229 0.844331 66.616103 108.199511 0.410032 0.000000

  
  ERROR 209: undefined object 1 at line 36 of [SUBCATCHMENT] section:
  YSHT1430263 1 YSHT1430263 0.021553 60.000000 17.287188 0.000000 0.000000

  
  ERROR 209: undefined object 1 at line 37 of [SUBCATCHMENT] section:
  YSHT1430274 1 YSHT1430274 0.268175 60.223048 60.978667 0.328779 0.000000

  
  ERROR 209: undefined object 1 at line 38 of [SUBCATCHMENT] section:
  YSHT1410201 1 YSHT1410201 0.091926 60.000000 35.701628 0.590363 0.000000

  
  ERROR 209: undefined object 1 at line 39 of [SUBCATCHMENT] section:
  YSHT1430264 1 YSHT1430264 0.242596 60.000000 57.997674 0.000000 0.000000

  
  ERROR 209: undefined object 1 at line 40 of [SUBCATCHMENT] section:
  YSHT1410203 1 YSHT1410203 0.163915 60.000000 47.673627 0.000000 0.000000

  
  ERROR 209: undefined object 1 at line 41 of [SUBCATCHMENT] section:
  YSHT1430275 1 YSHT1430275 0.274097 60.107527 61.648250 0.807775 0.000000

  
  ERROR 209: undefined object 1 at line 42 of [SUBCATCHMENT] section:
  YSHT1410209 1 YSHT1410209 0.172119 60.000000 48.852167 0.000000 0.000000

  
  ERROR 209: undefined object 1 at line 43 of [SUBCATCHMENT] section:
  YSHT1140013 1 YSHT1140013 0.299240 86.831683 64.413742 0.225263 0.000000

  
  ERROR 209: undefined object 1 at line 44 of [SUBCATCHMENT] section:
  YSHT1430284 1 YSHT1430284 0.489581 60.000000 82.391249 0.000000 0.000000

  
  ERROR 209: undefined object 1 at line 45 of [SUBCATCHMENT] section:
  YSHT1430276 1 YSHT1430276 0.248740 71.666667 58.727589 3.703642 0.000000

  
  ERROR 209: undefined object 1 at line 46 of [SUBCATCHMENT] section:
  YSHV1130395 1 YSHV1130395 0.360650 90.000000 70.715088 0.621752 0.000000

  
  ERROR 209: undefined object 1 at line 47 of [SUBCATCHMENT] section:
  YSHT1410208 1 YSHT1410208 0.102604 60.000000 37.718159 0.000000 0.000000

  
  ERROR 209: undefined object 1 at line 48 of [SUBCATCHMENT] section:
  YSHT1410206 1 YSHT1410206 0.058295 60.000000 28.430567 0.426390 0.000000

  
  ERROR 209: undefined object 1 at line 49 of [SUBCATCHMENT] section:
  YSHT1430298 1 YSHT1430298 0.543866 60.000000 86.839015 0.154346 0.000000

  
  ERROR 209: undefined object 1 at line 50 of [SUBCATCHMENT] section:
  YSHV1410227 1 YSHV1410227 0.190671 60.310881 51.417587 0.251216 0.000000

  
  ERROR 209: undefined object 1 at line 51 of [SUBCATCHMENT] section:
  YSHT1430292 1 YSHT1430292 0.544820 60.000000 86.915187 0.471619 0.000000

  
  ERROR 209: undefined object 1 at line 52 of [SUBCATCHMENT] section:
  YSHT1430283 1 YSHT1430283 0.275257 60.000000 61.778613 0.000000 0.000000

  
  ERROR 209: undefined object 1 at line 53 of [SUBCATCHMENT] section:
  YSHT1410207 1 YSHT1410207 0.041175 60.000000 23.893698 0.363401 0.000000

  
  ERROR 209: undefined object 1 at line 54 of [SUBCATCHMENT] section:
  YSHT1430299 1 YSHT1430299 0.095778 60.000000 36.441935 0.168995 0.000000

  
  ERROR 209: undefined object 1 at line 55 of [SUBCATCHMENT] section:
  YSHT1410213 1 YSHT1410213 0.626216 60.000000 93.181788 0.000000 0.000000

  
  ERROR 209: undefined object 1 at line 56 of [SUBCATCHMENT] section:
  YSHT1410211 1 YSHT1410211 0.097907 60.000000 36.844744 0.533042 0.000000

  
  ERROR 209: undefined object 1 at line 57 of [SUBCATCHMENT] section:
  YSHT1430277 1 YSHT1430277 0.076966 60.000000 32.667711 0.466482 0.000000

  
  ERROR 209: undefined object 1 at line 58 of [SUBCATCHMENT] section:
  YSHT1410212 1 YSHT1410212 0.087993 60.000000 34.929512 0.000000 0.000000

  
  ERROR 209: undefined object 1 at line 59 of [SUBCATCHMENT] section:
  YSHV1410226 1 YSHV1410226 0.086705 60.000000 34.673024 2.378645 0.000000

  
  ERROR 209: undefined object 1 at line 60 of [SUBCATCHMENT] section:
  YSHT1430282 1 YSHT1430282 0.101643 60.000000 37.541105 0.000000 0.000000

  
  ERROR 209: undefined object 1 at line 61 of [SUBCATCHMENT] section:
  YSHT1430281 1 YSHT1430281 0.069813 60.000000 31.112610 3.323098 0.000000

  
  ERROR 209: undefined object 1 at line 62 of [SUBCATCHMENT] section:
  YSHT1410221 1 YSHT1410221 0.722158 60.000000 100.065660 0.931482 0.000000

  
  ERROR 209: undefined object 1 at line 63 of [SUBCATCHMENT] section:
  YSHT1430278 1 YSHT1430278 0.077901 64.814815 32.865525 0.917374 0.000000

  
  ERROR 209: undefined object 1 at line 64 of [SUBCATCHMENT] section:
  YSHT1410222 1 YSHT1410222 1.021957 60.000000 119.037890 0.681376 0.000000

  
  ERROR 209: undefined object 1 at line 65 of [SUBCATCHMENT] section:
  YSHT1410223 1 YSHT1410223 0.661500 60.000000 95.770963 0.305286 0.000000

  
  ERROR 209: undefined object 1 at line 66 of [SUBCATCHMENT] section:
  YSBT6200130 1 YSBT6200130 0.127116 88.292683 41.982547 0.000000 0.000000

  
  ERROR 209: undefined object 1 at line 67 of [SUBCATCHMENT] section:
  YSHT1410224 1 YSHT1410224 0.470256 64.905660 80.748844 2.347875 0.000000

  
  ERROR 209: undefined object 1 at line 68 of [SUBCATCHMENT] section:
  YSHT1331679 1 YSHT1331679 0.174118 73.448276 49.135015 0.054854 0.000000

  
  ERROR 209: undefined object 1 at line 69 of [SUBCATCHMENT] section:
  YSHT1430300 1 YSHT1430300 0.199203 60.000000 52.555383 0.000000 0.000000

  
  ERROR 209: undefined object 1 at line 70 of [SUBCATCHMENT] section:
  YSHV1130153 1 YSHV1130153 0.279643 87.031802 62.268831 0.755551 0.000000

  
  ERROR 209: undefined object 1 at line 71 of [SUBCATCHMENT] section:
  YSHT1430291 1 YSHT1430291 0.272400 60.000000 61.457159 0.000000 0.000000

  
  ERROR 209: undefined object 1 at line 72 of [SUBCATCHMENT] section:
  YSHT1410214 1 YSHT1410214 0.054499 60.000000 27.489366 0.387629 0.000000

  
  ERROR 209: undefined object 1 at line 73 of [SUBCATCHMENT] section:
  YSHT1430297 1 YSHT1430297 0.591133 60.000000 90.534002 0.360306 0.000000

  
  ERROR 209: undefined object 1 at line 74 of [SUBCATCHMENT] section:
  YSHT1410220 1 YSHT1410220 0.503536 60.000000 83.557300 0.484133 0.000000

  
  ERROR 209: undefined object 1 at line 75 of [SUBCATCHMENT] section:
  YSHT1410216 1 YSHT1410216 0.174490 60.000000 49.187417 0.000000 0.000000

  
  ERROR 209: undefined object 1 at line 76 of [SUBCATCHMENT] section:
  YSHT1331678 1 YSHT1331678 0.110527 67.105263 39.147500 0.000000 0.000000

  
  ERROR 209: undefined object 1 at line 77 of [SUBCATCHMENT] section:
  YSBT6200100 1 YSBT6200100 0.130709 87.089552 42.571713 0.000000 0.000000

  
  ERROR 209: undefined object 1 at line 78 of [SUBCATCHMENT] section:
  YSHT1430280 1 YSHT1430280 0.034826 60.000000 21.974528 0.000000 0.000000

  
  ERROR 209: undefined object 1 at line 79 of [SUBCATCHMENT] section:
  YSHT1430279 1 YSHT1430279 0.108975 72.162162 38.871564 0.000000 0.000000

  
  ERROR 209: undefined object 1 at line 80 of [SUBCATCHMENT] section:
  YSHT1430290 1 YSHT1430290 0.096796 60.000000 36.635202 0.000000 0.000000

  
  ERROR 209: undefined object 1 at line 81 of [SUBCATCHMENT] section:
  YSHT1140014 1 YSHT1140014 1.578521 67.664783 147.942902 0.145848 0.000000

  
  ERROR 209: undefined object 1 at line 82 of [SUBCATCHMENT] section:
  YSHT1430301 1 YSHT1430301 0.119174 60.000000 40.649887 0.500560 0.000000

  
  ERROR 209: undefined object 1 at line 83 of [SUBCATCHMENT] section:
  YSHT1410215 1 YSHT1410215 0.064826 60.000000 29.980919 0.230917 0.000000

  
  ERROR 209: undefined object 1 at line 84 of [SUBCATCHMENT] section:
  YSHT1430302 1 YSHT1430302 0.396021 60.000000 74.101656 1.342375 0.000000

  
  ERROR 209: undefined object 1 at line 85 of [SUBCATCHMENT] section:
  YSHT1430286 1 YSHT1430286 0.068560 60.000000 30.832224 2.821053 0.000000

  
  ERROR 209: undefined object 1 at line 86 of [SUBCATCHMENT] section:
  YSHT1331677 1 YSHT1331677 0.070556 60.000000 31.277687 0.000000 0.000000

  
  ERROR 209: undefined object 1 at line 87 of [SUBCATCHMENT] section:
  YSHT1430289 1 YSHT1430289 0.044431 60.000000 24.820562 0.000000 0.000000

  
  ERROR 209: undefined object 1 at line 88 of [SUBCATCHMENT] section:
  YSHT1331680 1 YSHT1331680 0.064886 60.468750 29.994653 0.000000 0.000000

  
  ERROR 209: undefined object 1 at line 89 of [SUBCATCHMENT] section:
  YSHT1410218 1 YSHT1410218 0.136762 60.000000 43.546381 0.642439 0.000000

  
  ERROR 209: undefined object 1 at line 90 of [SUBCATCHMENT] section:
  YSBT6201201 1 YSBT6201201 0.039944 60.000000 23.533802 0.328134 0.000000

  
  ERROR 209: undefined object 1 at line 91 of [SUBCATCHMENT] section:
  YSBT6200131 1 YSBT6200131 0.153175 89.806452 46.085301 0.539742 0.000000

  
  ERROR 209: undefined object 1 at line 92 of [SUBCATCHMENT] section:
  YSHT1331687 1 YSHT1331687 0.070452 66.250000 31.254793 0.215867 0.000000

  
  ERROR 209: undefined object 1 at line 93 of [SUBCATCHMENT] section:
  YSHT1331688 1 YSHT1331688 0.119995 67.500000 40.789684 0.000000 0.000000

  
  ERROR 209: undefined object 1 at line 94 of [SUBCATCHMENT] section:
  YSHT1430296 1 YSHT1430296 0.272387 60.000000 61.455656 0.175719 0.000000

  
  ERROR 209: undefined object 1 at line 95 of [SUBCATCHMENT] section:
  YSBT6200101 1 YSBT6200101 0.155785 89.808917 46.476304 0.528594 0.000000

  
  ERROR 209: undefined object 1 at line 96 of [SUBCATCHMENT] section:
  YSHT1331676 1 YSHT1331676 0.111534 60.000000 39.325385 0.124466 0.000000

  
  ERROR 209: undefined object 1 at line 97 of [SUBCATCHMENT] section:
  YSHT1410219 1 YSHT1410219 0.114815 60.000000 39.899607 0.596767 0.000000

  
  ERROR 209: undefined object 1 at line 98 of [SUBCATCHMENT] section:
  YSHV1130152 1 YSHV1130152 0.269726 86.801471 61.154766 0.375031 0.000000

  
  ERROR 209: undefined object 1 at line 99 of [SUBCATCHMENT] section:
  YSHT1430288 1 YSHT1430288 0.084406 60.000000 34.210165 0.000000 0.000000

  
  ERROR 209: undefined object 1 at line 100 of [SUBCATCHMENT] section:
  YSHT1430287 1 YSHT1430287 0.126628 71.190476 41.901888 0.000000 0.000000

  
  ERROR 209: undefined object 1 at line 101 of [SUBCATCHMENT] section:
  YSHT1430294 1 YSHT1430294 0.121238 60.000000 41.000431 2.254030 0.000000

  
  ERROR 209: undefined object 1 at line 102 of [SUBCATCHMENT] section:
  YSHT1331675 1 YSHT1331675 0.103013 60.000000 37.793246 0.000000 0.000000

  
  ERROR 209: undefined object 1 at line 103 of [SUBCATCHMENT] section:
  YSHT1331689 1 YSHT1331689 0.105273 61.962617 38.205610 0.269162 0.000000

  
  ERROR 209: undefined object 1 at line 104 of [SUBCATCHMENT] section:
  YSHT1330894 1 YSHT1330894 0.258812 60.000000 59.904785 0.982752 0.000000

  
  ERROR 209: undefined object 1 at line 105 of [SUBCATCHMENT] section:
  YSHT1331674 1 YSHT1331674 0.053248 60.000000 27.171928 0.000000 0.000000

  
  ERROR 209: undefined object 1 at line 106 of [SUBCATCHMENT] section:
  YSHT1330893 1 YSHT1330893 0.440705 60.000000 78.170550 0.081008 0.000000

  
  ERROR 209: undefined object 1 at line 107 of [SUBCATCHMENT] section:
  YSHT1331673 1 YSHT1331673 0.117503 62.033898 40.363915 0.000000 0.000000

  
  ERROR 209: undefined object 1 at line 108 of [SUBCATCHMENT] section:
  YSHT1331672 1 YSHT1331672 0.120137 61.463415 40.813798 0.077461 0.000000

  
  ERROR 209: undefined object 1 at line 109 of [SUBCATCHMENT] section:
  YSHT1330892 1 YSHT1330892 0.119090 60.000000 40.635574 0.085491 0.000000

  
  ERROR 209: undefined object 1 at line 110 of [SUBCATCHMENT] section:
  YSHT1330895 1 YSHT1330895 0.075368 60.000000 32.326803 0.904027 0.000000

  
  Maximum error count exceeded.

  Analysis begun on:  Tue Jun 23 21:07:14 2026
  Analysis ended on:  Tue Jun 23 21:07:14 2026
  Total elapsed time: < 1 sec